Capecitabine.cdx
csChFnd80/01042310162D

 25 26  0  0  0  0  0  0  0  0999 V2000
    9.6995    3.5073    0.0000 N   0  0  0  0  0  0  0  0  0  0  0  0
    9.6995    2.1024    0.0000 C   0  0  0  0  0  0  0  0  0  0  0  0
   10.9161    1.4000    0.0000 C   0  0  0  0  0  0  0  0  0  0  0  0
   12.1328    2.1024    0.0000 C   0  0  0  0  0  0  0  0  0  0  0  0
   12.1328    3.5073    0.0000 N   0  0  0  0  0  0  0  0  0  0  0  0
   10.9161    4.2098    0.0000 C   0  0  0  0  0  0  0  0  0  0  0  0
   10.9161    5.6098    0.0000 O   0  0  0  0  0  0  0  0  0  0  0  0
   13.3452    4.2073    0.0000 C   0  0  2  0  0  0  0  0  0  0  0  0
   10.9161    0.0000    0.0000 F   0  0  0  0  0  0  0  0  0  0  0  0
   14.6286    3.6359    0.0000 O   0  0  0  0  0  0  0  0  0  0  0  0
   15.5687    4.6799    0.0000 C   0  0  1  0  0  0  0  0  0  0  0  0
   14.8663    5.8966    0.0000 C   0  0  2  0  0  0  0  0  0  0  0  0
   13.4921    5.6045    0.0000 C   0  0  1  0  0  0  0  0  0  0  0  0
   15.4357    7.1755    0.0000 O   0  0  0  0  0  0  0  0  0  0  0  0
   12.4517    6.5413    0.0000 O   0  0  0  0  0  0  0  0  0  0  0  0
   16.9610    4.5336    0.0000 C   0  0  0  0  0  0  0  0  0  0  0  0
    8.4870    1.4024    0.0000 N   0  0  0  0  0  0  0  0  0  0  0  0
    7.2746    2.1024    0.0000 C   0  0  0  0  0  0  0  0  0  0  0  0
    6.0622    1.4024    0.0000 O   0  0  0  0  0  0  0  0  0  0  0  0
    4.8497    2.1024    0.0000 C   0  0  0  0  0  0  0  0  0  0  0  0
    3.6373    1.4024    0.0000 C   0  0  0  0  0  0  0  0  0  0  0  0
    2.4249    2.1024    0.0000 C   0  0  0  0  0  0  0  0  0  0  0  0
    1.2124    1.4024    0.0000 C   0  0  0  0  0  0  0  0  0  0  0  0
    7.2746    3.5024    0.0000 O   0  0  0  0  0  0  0  0  0  0  0  0
    0.0000    2.1024    0.0000 C   0  0  0  0  0  0  0  0  0  0  0  0
  1  2  2  0  0  0  0
  2  3  1  0  0  0  0
  3  4  2  0  0  0  0
  4  5  1  0  0  0  0
  5  6  1  0  0  0  0
  6  1  1  0  0  0  0
  6  7  2  0  0  0  0
  3  9  1  0  0  0  0
  8 10  1  0  0  0  0
 10 11  1  0  0  0  0
 11 12  1  0  0  0  0
 12 13  1  0  0  0  0
 13  8  1  0  0  0  0
 12 14  1  6  0  0  0
 13 15  1  6  0  0  0
 11 16  1  1  0  0  0
  8  5  1  1  0  0  0
  2 17  1  0  0  0  0
 17 18  1  0  0  0  0
 18 19  1  0  0  0  0
 19 20  1  0  0  0  0
 20 21  1  0  0  0  0
 21 22  1  0  0  0  0
 22 23  1  0  0  0  0
 18 24  2  0  0  0  0
 23 25  1  0  0  0  0
M  END
>  <Mol_ID> (1)
96

>  <Formula> (1)
C15H22FN3O6

>  <MolWeight> (1)
359.3500832

>  <Cat> (1)
S1156

>  <Name> (1)
Capecitabine (Xeloda)

>  <Synonyms> (1)
Captabin 

>  <Target> (1)
DNA/RNA Synthesis

>  <Form> (1)
Free Base

>  <CAS> (1)
154361-50-9

>  <URL> (1)
http://www.selleckchem.com/products/Capecitabine(Xeloda).html

$$$$
Cladribine.cdx
csChFnd80/01042310162D

 19 21  0  0  0  0  0  0  0  0999 V2000
    1.2082    3.6157    0.0000 N   0  0  0  0  0  0  0  0  0  0  0  0
    1.2082    2.2157    0.0000 C   0  0  0  0  0  0  0  0  0  0  0  0
    2.4207    1.5157    0.0000 C   0  0  0  0  0  0  0  0  0  0  0  0
    3.6331    2.2157    0.0000 C   0  0  0  0  0  0  0  0  0  0  0  0
    3.6331    3.6157    0.0000 N   0  0  0  0  0  0  0  0  0  0  0  0
    2.4207    4.3157    0.0000 C   0  0  0  0  0  0  0  0  0  0  0  0
    2.7117    0.1463    0.0000 N   0  0  0  0  0  0  0  0  0  0  0  0
    4.1041    0.0000    0.0000 C   0  0  0  0  0  0  0  0  0  0  0  0
    4.6735    1.2790    0.0000 N   0  0  0  0  0  0  0  0  0  0  0  0
    0.0000    1.5182    0.0000 N   0  0  0  0  0  0  0  0  0  0  0  0
    2.4207    5.7109    0.0000 Cl  0  0  0  0  0  0  0  0  0  0  0  0
    6.0382    1.5690    0.0000 C   0  0  1  0  0  0  0  0  0  0  0  0
    7.0281    0.5791    0.0000 C   0  0  0  0  0  0  0  0  0  0  0  0
    8.2755    1.2147    0.0000 C   0  0  1  0  0  0  0  0  0  0  0  0
    8.0565    2.5974    0.0000 C   0  0  2  0  0  0  0  0  0  0  0  0
    6.6737    2.8164    0.0000 O   0  0  0  0  0  0  0  0  0  0  0  0
    9.0430    3.5839    0.0000 C   0  0  0  0  0  0  0  0  0  0  0  0
   10.3906    3.2229    0.0000 O   0  0  0  0  0  0  0  0  0  0  0  0
    9.5186    0.5813    0.0000 O   0  0  0  0  0  0  0  0  0  0  0  0
  1  2  2  0  0  0  0
  2  3  1  0  0  0  0
  3  4  2  0  0  0  0
  4  5  1  0  0  0  0
  5  6  2  0  0  0  0
  6  1  1  0  0  0  0
  3  7  1  0  0  0  0
  7  8  2  0  0  0  0
  8  9  1  0  0  0  0
  9  4  1  0  0  0  0
  2 10  1  0  0  0  0
  6 11  1  0  0  0  0
 12 13  1  0  0  0  0
 13 14  1  0  0  0  0
 14 15  1  0  0  0  0
 15 16  1  0  0  0  0
 16 12  1  0  0  0  0
 15 17  1  6  0  0  0
 17 18  1  0  0  0  0
 14 19  1  1  0  0  0
 12  9  1  6  0  0  0
M  END
>  <Mol_ID> (2)
122

>  <Formula> (2)
C10H12ClN5O3

>  <MolWeight> (2)
285.68698

>  <Cat> (2)
S1199

>  <Name> (2)
Cladribine

>  <Synonyms> (2)
Leustatin

>  <Target> (2)
DNA/RNA Synthesis

>  <Form> (2)
Free Base

>  <CAS> (2)
4291-63-8

>  <URL> (2)
http://www.selleckchem.com/products/Cladribine.html

$$$$
decitabine (2¡ä-deoxy-5-azacytidine).cdx
csChFnd80/01042310162D

 16 17  0  0  0  0  0  0  0  0999 V2000
    4.2124    3.2474    0.0000 C   0  0  2  0  0  0  0  0  0  0  0  0
    2.8601    3.6097    0.0000 O   0  0  0  0  0  0  0  0  0  0  0  0
    2.0976    2.4356    0.0000 C   0  0  1  0  0  0  0  0  0  0  0  0
    2.9786    1.3476    0.0000 C   0  0  2  0  0  0  0  0  0  0  0  0
    4.2856    1.8493    0.0000 C   0  0  0  0  0  0  0  0  0  0  0  0
    0.6976    2.4356    0.0000 C   0  0  0  0  0  0  0  0  0  0  0  0
    0.0000    1.2274    0.0000 O   0  0  0  0  0  0  0  0  0  0  0  0
    2.6175    0.0000    0.0000 O   0  0  0  0  0  0  0  0  0  0  0  0
    5.2966    4.1254    0.0000 N   0  0  0  0  0  0  0  0  0  0  0  0
    6.6036    3.6237    0.0000 C   0  0  0  0  0  0  0  0  0  0  0  0
    7.6916    4.5047    0.0000 N   0  0  0  0  0  0  0  0  0  0  0  0
    7.4726    5.8875    0.0000 C   0  0  0  0  0  0  0  0  0  0  0  0
    6.1656    6.3892    0.0000 N   0  0  0  0  0  0  0  0  0  0  0  0
    5.0776    5.5082    0.0000 C   0  0  0  0  0  0  0  0  0  0  0  0
    3.7751    6.0081    0.0000 O   0  0  0  0  0  0  0  0  0  0  0  0
    8.5568    6.7655    0.0000 N   0  0  0  0  0  0  0  0  0  0  0  0
  1  2  1  0  0  0  0
  2  3  1  0  0  0  0
  3  4  1  0  0  0  0
  4  5  1  0  0  0  0
  5  1  1  0  0  0  0
  3  6  1  1  0  0  0
  6  7  1  0  0  0  0
  4  8  1  6  0  0  0
  1  9  1  1  0  0  0
  9 10  1  0  0  0  0
 10 11  2  0  0  0  0
 11 12  1  0  0  0  0
 12 13  2  0  0  0  0
 13 14  1  0  0  0  0
 14  9  1  0  0  0  0
 14 15  2  0  0  0  0
 12 16  1  0  0  0  0
M  END
>  <Mol_ID> (3)
123

>  <Formula> (3)
C8H12N4O4

>  <MolWeight> (3)
228.20528

>  <Cat> (3)
S1200

>  <Name> (3)
Decitabine

>  <Synonyms> (3)
Dacogen

>  <Target> (3)
DNA/RNA Synthesis

>  <Form> (3)
Free Base

>  <CAS> (3)
2353-33-5

>  <URL> (3)
http://www.selleckchem.com/products/Decitabine.html

$$$$
Adrucil (Fluorouracil).cdx
csChFnd80/01042310162D

  9  9  0  0  0  0  0  0  0  0999 V2000
    1.2082    3.4951    0.0000 C   0  0  0  0  0  0  0  0  0  0  0  0
    1.2082    2.0951    0.0000 N   0  0  0  0  0  0  0  0  0  0  0  0
    2.4207    1.3951    0.0000 C   0  0  0  0  0  0  0  0  0  0  0  0
    3.6331    2.0951    0.0000 C   0  0  0  0  0  0  0  0  0  0  0  0
    3.6331    3.4951    0.0000 C   0  0  0  0  0  0  0  0  0  0  0  0
    2.4207    4.1951    0.0000 N   0  0  0  0  0  0  0  0  0  0  0  0
    4.8413    1.3976    0.0000 F   0  0  0  0  0  0  0  0  0  0  0  0
    2.4207    0.0000    0.0000 O   0  0  0  0  0  0  0  0  0  0  0  0
    0.0000    4.1927    0.0000 O   0  0  0  0  0  0  0  0  0  0  0  0
  1  2  1  0  0  0  0
  2  3  1  0  0  0  0
  3  4  1  0  0  0  0
  4  5  2  0  0  0  0
  5  6  1  0  0  0  0
  6  1  1  0  0  0  0
  4  7  1  0  0  0  0
  3  8  2  0  0  0  0
  1  9  2  0  0  0  0
M  END
>  <Mol_ID> (4)
127

>  <Formula> (4)
C4H3FN2O2

>  <MolWeight> (4)
130.0772232

>  <Cat> (4)
S1209

>  <Name> (4)
Adrucil (Fluorouracil)

>  <Synonyms> (4)
5-FU, Carac, Efudex, Fluoroplex 

>  <Target> (4)
DNA/RNA Synthesis

>  <Form> (4)
Free Base

>  <CAS> (4)
51-21-8

>  <URL> (4)
http://www.selleckchem.com/products/Adrucil(Fluorouracil).html

$$$$
Arranon (Nelarabine).cdx
csChFnd80/01042310162D

 21 23  0  0  0  0  0  0  0  0999 V2000
    2.4598    2.1000    0.0000 N   0  0  0  0  0  0  0  0  0  0  0  0
    3.6723    1.4000    0.0000 C   0  0  0  0  0  0  0  0  0  0  0  0
    4.8847    2.1000    0.0000 N   0  0  0  0  0  0  0  0  0  0  0  0
    4.8847    3.5000    0.0000 C   0  0  0  0  0  0  0  0  0  0  0  0
    3.6723    4.2000    0.0000 C   0  0  0  0  0  0  0  0  0  0  0  0
    2.4598    3.5000    0.0000 C   0  0  0  0  0  0  0  0  0  0  0  0
    5.9251    4.4368    0.0000 N   0  0  0  0  0  0  0  0  0  0  0  0
    5.3557    5.7157    0.0000 C   0  0  0  0  0  0  0  0  0  0  0  0
    3.9634    5.5694    0.0000 N   0  0  0  0  0  0  0  0  0  0  0  0
    3.6723    0.0000    0.0000 N   0  0  0  0  0  0  0  0  0  0  0  0
    1.2474    4.2000    0.0000 O   0  0  0  0  0  0  0  0  0  0  0  0
    0.0000    3.5644    0.0000 C   0  0  0  0  0  0  0  0  0  0  0  0
    7.2945    4.1457    0.0000 C   0  0  1  0  0  0  0  0  0  0  0  0
    7.8640    2.8667    0.0000 C   0  0  2  0  0  0  0  0  0  0  0  0
    9.2563    3.0131    0.0000 C   0  0  1  0  0  0  0  0  0  0  0  0
    9.5474    4.3825    0.0000 C   0  0  2  0  0  0  0  0  0  0  0  0
    8.3349    5.0825    0.0000 O   0  0  0  0  0  0  0  0  0  0  0  0
   10.8263    4.9519    0.0000 C   0  0  0  0  0  0  0  0  0  0  0  0
    7.1640    1.6543    0.0000 O   0  0  0  0  0  0  0  0  0  0  0  0
   10.1931    1.9727    0.0000 O   0  0  0  0  0  0  0  0  0  0  0  0
   10.8996    6.3500    0.0000 O   0  0  0  0  0  0  0  0  0  0  0  0
  1  2  1  0  0  0  0
  2  3  2  0  0  0  0
  3  4  1  0  0  0  0
  4  5  2  0  0  0  0
  5  6  1  0  0  0  0
  6  1  2  0  0  0  0
  4  7  1  0  0  0  0
  7  8  1  0  0  0  0
  8  9  2  0  0  0  0
  9  5  1  0  0  0  0
  2 10  1  0  0  0  0
  6 11  1  0  0  0  0
 11 12  1  0  0  0  0
 13 14  1  0  0  0  0
 14 15  1  0  0  0  0
 15 16  1  0  0  0  0
 16 17  1  0  0  0  0
 17 13  1  0  0  0  0
 13  7  1  6  0  0  0
 16 18  1  6  0  0  0
 14 19  1  6  0  0  0
 15 20  1  1  0  0  0
 18 21  1  0  0  0  0
M  END
>  <Mol_ID> (5)
130

>  <Formula> (5)
C11H15N5O5

>  <MolWeight> (5)
297.2673

>  <Cat> (5)
S1213

>  <Name> (5)
Nelarabine (Arranon)

>  <Synonyms> (5)
Arranon

>  <Target> (5)
DNA/RNA Synthesis 

>  <Form> (5)
Free Base

>  <CAS> (5)
121032-29-9

>  <URL> (5)
http://www.selleckchem.com/products/Arranon.html

$$$$
Clofarabine.cdx
csChFnd80/01042310162D

 20 22  0  0  0  0  0  0  0  0999 V2000
    1.2082    6.7516    0.0000 N   0  0  0  0  0  0  0  0  0  0  0  0
    1.2082    5.3516    0.0000 C   0  0  0  0  0  0  0  0  0  0  0  0
    2.4207    4.6516    0.0000 N   0  0  0  0  0  0  0  0  0  0  0  0
    3.6331    5.3516    0.0000 C   0  0  0  0  0  0  0  0  0  0  0  0
    3.6331    6.7516    0.0000 C   0  0  0  0  0  0  0  0  0  0  0  0
    2.4207    7.4516    0.0000 C   0  0  0  0  0  0  0  0  0  0  0  0
    4.9646    4.9190    0.0000 N   0  0  0  0  0  0  0  0  0  0  0  0
    5.7875    6.0516    0.0000 C   0  0  0  0  0  0  0  0  0  0  0  0
    4.9646    7.1842    0.0000 N   0  0  0  0  0  0  0  0  0  0  0  0
    2.4207    8.8467    0.0000 N   0  0  0  0  0  0  0  0  0  0  0  0
    0.0000    4.6540    0.0000 Cl  0  0  0  0  0  0  0  0  0  0  0  0
    5.3957    3.5921    0.0000 C   0  0  1  0  0  0  0  0  0  0  0  0
    4.5728    2.4595    0.0000 C   0  0  2  0  0  0  0  0  0  0  0  0
    5.3957    1.3269    0.0000 C   0  0  1  0  0  0  0  0  0  0  0  0
    6.7272    1.7595    0.0000 C   0  0  2  0  0  0  0  0  0  0  0  0
    6.7272    3.1595    0.0000 O   0  0  0  0  0  0  0  0  0  0  0  0
    3.1777    2.4595    0.0000 F   0  0  0  0  0  0  0  0  0  0  0  0
    7.8559    0.9394    0.0000 C   0  0  0  0  0  0  0  0  0  0  0  0
    4.9646    0.0000    0.0000 O   0  0  0  0  0  0  0  0  0  0  0  0
    9.1304    1.5069    0.0000 O   0  0  0  0  0  0  0  0  0  0  0  0
  1  2  2  0  0  0  0
  2  3  1  0  0  0  0
  3  4  2  0  0  0  0
  4  5  1  0  0  0  0
  5  6  2  0  0  0  0
  6  1  1  0  0  0  0
  4  7  1  0  0  0  0
  7  8  1  0  0  0  0
  8  9  2  0  0  0  0
  9  5  1  0  0  0  0
  6 10  1  0  0  0  0
  2 11  1  0  0  0  0
 12 13  1  0  0  0  0
 13 14  1  0  0  0  0
 14 15  1  0  0  0  0
 15 16  1  0  0  0  0
 16 12  1  0  0  0  0
 12  7  1  6  0  0  0
 13 17  1  6  0  0  0
 15 18  1  6  0  0  0
 14 19  1  1  0  0  0
 18 20  1  0  0  0  0
M  END
>  <Mol_ID> (6)
131

>  <Formula> (6)
C10H11ClFN5O3

>  <MolWeight> (6)
303.6774432

>  <Cat> (6)
S1218

>  <Name> (6)
Clofarabine

>  <Synonyms> (6)
Clolar, Evoltra

>  <Target> (6)
DNA/RNA Synthesis

>  <Form> (6)
Free Base

>  <CAS> (6)
123318-82-1

>  <URL> (6)
http://www.selleckchem.com/products/Clofarabine.html

$$$$
Fludara (Fludarabine Phosphate).cdx
csChFnd80/01042310162D

 24 26  0  0  0  0  0  0  0  0999 V2000
    1.2124    2.1000    0.0000 N   0  0  0  0  0  0  0  0  0  0  0  0
    2.4249    1.4000    0.0000 C   0  0  0  0  0  0  0  0  0  0  0  0
    3.6373    2.1000    0.0000 N   0  0  0  0  0  0  0  0  0  0  0  0
    3.6373    3.5000    0.0000 C   0  0  0  0  0  0  0  0  0  0  0  0
    2.4249    4.2000    0.0000 C   0  0  0  0  0  0  0  0  0  0  0  0
    1.2124    3.5000    0.0000 C   0  0  0  0  0  0  0  0  0  0  0  0
    4.6777    4.4368    0.0000 N   0  0  0  0  0  0  0  0  0  0  0  0
    4.1083    5.7157    0.0000 C   0  0  0  0  0  0  0  0  0  0  0  0
    2.7159    5.5694    0.0000 N   0  0  0  0  0  0  0  0  0  0  0  0
    0.0000    4.2000    0.0000 N   0  0  0  0  0  0  0  0  0  0  0  0
    2.4249    0.0000    0.0000 F   0  0  0  0  0  0  0  0  0  0  0  0
    6.0471    4.1457    0.0000 C   0  0  1  0  0  0  0  0  0  0  0  0
    6.6165    2.8667    0.0000 C   0  0  2  0  0  0  0  0  0  0  0  0
    8.0089    3.0131    0.0000 C   0  0  1  0  0  0  0  0  0  0  0  0
    8.3000    4.3825    0.0000 C   0  0  2  0  0  0  0  0  0  0  0  0
    7.0875    5.0825    0.0000 O   0  0  0  0  0  0  0  0  0  0  0  0
    9.5789    4.9519    0.0000 C   0  0  0  0  0  0  0  0  0  0  0  0
    5.9165    1.6543    0.0000 O   0  0  0  0  0  0  0  0  0  0  0  0
   10.7115    4.1290    0.0000 O   0  0  0  0  0  0  0  0  0  0  0  0
   11.9905    4.6985    0.0000 P   0  0  0  0  0  0  0  0  0  0  0  0
   12.5599    3.4195    0.0000 O   0  0  0  0  0  0  0  0  0  0  0  0
   11.4211    5.9774    0.0000 O   0  0  0  0  0  0  0  0  0  0  0  0
   13.2695    5.2679    0.0000 O   0  0  0  0  0  0  0  0  0  0  0  0
    8.9457    1.9727    0.0000 O   0  0  0  0  0  0  0  0  0  0  0  0
  1  2  1  0  0  0  0
  2  3  2  0  0  0  0
  3  4  1  0  0  0  0
  4  5  2  0  0  0  0
  5  6  1  0  0  0  0
  6  1  2  0  0  0  0
  4  7  1  0  0  0  0
  7  8  1  0  0  0  0
  8  9  2  0  0  0  0
  9  5  1  0  0  0  0
  6 10  1  0  0  0  0
  2 11  1  0  0  0  0
 12 13  1  0  0  0  0
 13 14  1  0  0  0  0
 14 15  1  0  0  0  0
 15 16  1  0  0  0  0
 16 12  1  0  0  0  0
 12  7  1  6  0  0  0
 15 17  1  6  0  0  0
 13 18  1  6  0  0  0
 17 19  1  0  0  0  0
 14 24  1  1  0  0  0
 19 20  1  0  0  0  0
 20 21  2  0  0  0  0
 20 22  1  0  0  0  0
 20 23  1  0  0  0  0
M  END
>  <Mol_ID> (7)
138

>  <Formula> (7)
C10H13FN5O7P

>  <MolWeight> (7)
365.2116842

>  <Cat> (7)
S1229

>  <Name> (7)
Fludarabine Phosphate (Fludara)

>  <Synonyms> (7)
N/A 

>  <Target> (7)
DNA/RNA Synthesis

>  <Form> (7)
Phosphate

>  <CAS> (7)
75607-67-9

>  <URL> (7)
http://www.selleckchem.com/products/Fludara.html

$$$$
Hydroxyurea.cdx
csChFnd80/01042310162D

  5  4  0  0  0  0  0  0  0  0999 V2000
    2.4249    0.0000    0.0000 N   0  0  0  0  0  0  0  0  0  0  0  0
    3.6415    0.7024    0.0000 C   0  0  0  0  0  0  0  0  0  0  0  0
    4.8540    0.0024    0.0000 N   0  0  0  0  0  0  0  0  0  0  0  0
    1.2124    0.7000    0.0000 O   0  0  0  0  0  0  0  0  0  0  0  0
    3.6415    2.1024    0.0000 O   0  0  0  0  0  0  0  0  0  0  0  0
  1  2  1  0  0  0  0
  2  3  1  0  0  0  0
  1  4  1  0  0  0  0
  2  5  2  0  0  0  0
M  END
>  <Mol_ID> (8)
185

>  <Formula> (8)
CH4N2O2

>  <MolWeight> (8)
76.05466

>  <Cat> (8)
S1896

>  <Name> (8)
Hydroxyurea (Cytodrox)

>  <Synonyms> (8)
Hydrea, Biosupressin

>  <Target> (8)
DNA/RNA Synthesis

>  <Form> (8)
Free Base

>  <CAS> (8)
127-07-1

>  <URL> (8)
http://www.selleckchem.com/products/Hydroxyurea(Cytodrox).html

$$$$
Vitamin B12.cdx
csChFnd80/01042310162D

 94100  0  0  0  0  0  0  0  0999 V2000
    3.6417   11.1555    0.0000 C   0  0  2  0  0  0  0  0  0  0  0  0
    4.5939   10.2198    0.0000 C   0  0  2  0  0  0  0  0  0  0  0  0
    5.8796   10.9266    0.0000 C   0  0  0  0  0  0  0  0  0  0  0  0
    5.6696   12.2166    0.0000 N   0  0  0  0  0  0  0  0  0  0  0  0
    4.2763   12.4529    0.0000 C   0  0  1  0  0  0  0  0  0  0  0  0
    4.6330   17.1265    0.0000 C   0  0  1  0  0  0  0  0  0  0  0  0
    3.6481   16.1242    0.0000 C   0  0  1  0  0  0  0  0  0  0  0  0
    4.2547   14.9370    0.0000 C   0  0  1  0  0  0  0  0  0  0  0  0
    5.5939   15.1971    0.0000 N   0  5  0  0  0  0  0  0  0  0  0  0
    5.8803   16.5412    0.0000 C   0  0  0  0  0  0  0  0  0  0  0  0
   10.5530   16.2838    0.0000 C   0  0  1  0  0  0  0  0  0  0  0  0
    9.6008   17.2195    0.0000 C   0  0  2  0  0  0  0  0  0  0  0  0
    8.3147   16.5624    0.0000 C   0  0  0  0  0  0  0  0  0  0  0  0
    8.5753   15.1735    0.0000 N   0  0  0  0  0  0  0  0  0  0  0  0
    9.8688   14.9860    0.0000 C   0  0  0  0  0  0  0  0  0  0  0  0
    7.1167   17.1979    0.0000 C   0  0  0  0  0  0  0  0  0  0  0  0
    9.6615   10.2640    0.0000 C   0  0  1  0  0  0  0  0  0  0  0  0
   10.5973   11.2162    0.0000 C   0  0  0  0  0  0  0  0  0  0  0  0
    9.9397   12.5520    0.0000 C   0  0  0  0  0  0  0  0  0  0  0  0
    8.5512   12.2418    0.0000 N   0  0  0  0  0  0  0  0  0  0  0  0
    8.3145   10.8982    0.0000 C   0  0  0  0  0  0  0  0  0  0  0  0
    7.1277   10.2419    0.0000 C   0  0  0  0  0  0  0  0  0  0  0  0
   10.5751   13.7500    0.0000 C   0  0  0  0  0  0  0  0  0  0  0  0
    7.1163   18.5930    0.0000 C   0  0  0  0  0  0  0  0  0  0  0  0
    9.2385   18.5718    0.0000 C   0  0  0  0  0  0  0  0  0  0  0  0
   10.5908   18.2095    0.0000 C   0  0  0  0  0  0  0  0  0  0  0  0
   10.2284   19.5618    0.0000 C   0  0  0  0  0  0  0  0  0  0  0  0
   11.2150   20.5483    0.0000 N   0  0  0  0  0  0  0  0  0  0  0  0
    8.8808   19.9229    0.0000 O   0  0  0  0  0  0  0  0  0  0  0  0
   11.9316   16.4984    0.0000 C   0  0  0  0  0  0  0  0  0  0  0  0
   12.6316   17.7109    0.0000 C   0  0  0  0  0  0  0  0  0  0  0  0
   14.0316   17.7109    0.0000 C   0  0  0  0  0  0  0  0  0  0  0  0
   14.7291   18.9191    0.0000 N   0  0  0  0  0  0  0  0  0  0  0  0
   14.7291   16.5027    0.0000 O   0  0  0  0  0  0  0  0  0  0  0  0
   11.9496   11.5786    0.0000 C   0  0  0  0  0  0  0  0  0  0  0  0
   11.5872   10.2263    0.0000 C   0  0  0  0  0  0  0  0  0  0  0  0
    7.1301    8.8468    0.0000 C   0  0  0  0  0  0  0  0  0  0  0  0
    3.6040    9.2299    0.0000 C   0  0  0  0  0  0  0  0  0  0  0  0
    4.9563    8.8675    0.0000 C   0  0  0  0  0  0  0  0  0  0  0  0
    3.9663    7.8776    0.0000 C   0  0  0  0  0  0  0  0  0  0  0  0
    3.2663    6.6651    0.0000 C   0  0  0  0  0  0  0  0  0  0  0  0
    3.6287    5.3128    0.0000 N   0  0  0  0  0  0  0  0  0  0  0  0
    1.8831    6.8472    0.0000 O   0  0  0  0  0  0  0  0  0  0  0  0
    9.9073    8.8907    0.0000 C   0  0  0  0  0  0  0  0  0  0  0  0
   11.2195    8.4169    0.0000 C   0  0  0  0  0  0  0  0  0  0  0  0
   11.4652    7.0435    0.0000 C   0  0  0  0  0  0  0  0  0  0  0  0
   12.7774    6.5697    0.0000 N   0  0  0  0  0  0  0  0  0  0  0  0
   10.3988    6.1440    0.0000 O   0  0  0  0  0  0  0  0  0  0  0  0
    3.2663    3.9605    0.0000 C   0  0  0  0  0  0  0  0  0  0  0  0
    2.0539    3.2605    0.0000 C   0  0  2  0  0  0  0  0  0  0  0  0
    1.6916    1.9082    0.0000 O   0  0  0  0  0  0  0  0  0  0  0  0
    0.9471    4.1098    0.0000 C   0  0  0  0  0  0  0  0  0  0  0  0
    2.9040    1.2082    0.0000 P   0  0  3  0  0  0  0  0  0  0  0  0
    4.1164    0.5082    0.0000 O   0  0  0  0  0  0  0  0  0  0  0  0
    3.6016    2.4165    0.0000 O   0  5  0  0  0  0  0  0  0  0  0  0
    2.2064    0.0000    0.0000 O   0  0  0  0  0  0  0  0  0  0  0  0
    5.1064    1.4982    0.0000 C   0  0  1  0  0  0  0  0  0  0  0  0
    6.4891    1.2792    0.0000 C   0  0  2  0  0  0  0  0  0  0  0  0
    7.1247    2.5266    0.0000 C   0  0  2  0  0  0  0  0  0  0  0  0
    6.1348    3.5165    0.0000 O   0  0  0  0  0  0  0  0  0  0  0  0
    4.8874    2.8809    0.0000 C   0  0  2  0  0  0  0  0  0  0  0  0
    4.5250    4.2332    0.0000 C   0  0  0  0  0  0  0  0  0  0  0  0
    5.7375    4.9332    0.0000 O   0  0  0  0  0  0  0  0  0  0  0  0
    7.1225    0.0361    0.0000 O   0  0  0  0  0  0  0  0  0  0  0  0
    8.5027    2.7448    0.0000 N   0  0  0  0  0  0  0  0  0  0  0  0
    8.1403    1.3925    0.0000 C   0  0  0  0  0  0  0  0  0  0  0  0
    9.3145    0.6300    0.0000 N   0  0  0  0  0  0  0  0  0  0  0  0
   10.4025    1.5111    0.0000 C   0  0  0  0  0  0  0  0  0  0  0  0
    9.9008    2.8181    0.0000 C   0  0  0  0  0  0  0  0  0  0  0  0
   11.7853    1.2921    0.0000 C   0  0  0  0  0  0  0  0  0  0  0  0
   12.6663    2.3801    0.0000 C   0  0  0  0  0  0  0  0  0  0  0  0
   12.1646    3.6871    0.0000 C   0  0  0  0  0  0  0  0  0  0  0  0
   10.7818    3.9061    0.0000 C   0  0  0  0  0  0  0  0  0  0  0  0
   13.0426    4.7713    0.0000 C   0  0  0  0  0  0  0  0  0  0  0  0
   14.0443    2.1618    0.0000 C   0  0  0  0  0  0  0  0  0  0  0  0
    2.2666   10.9200    0.0000 C   0  0  0  0  0  0  0  0  0  0  0  0
    1.3751   11.9932    0.0000 C   0  0  0  0  0  0  0  0  0  0  0  0
    0.0000   11.7577    0.0000 N   0  0  0  0  0  0  0  0  0  0  0  0
    1.8587   13.3018    0.0000 O   0  0  0  0  0  0  0  0  0  0  0  0
    2.9158   12.7616    0.0000 H   0  0  0  0  0  0  0  0  0  0  0  0
    2.9024   14.5747    0.0000 C   0  0  0  0  0  0  0  0  0  0  0  0
    2.4356   15.4242    0.0000 C   0  0  0  0  0  0  0  0  0  0  0  0
    1.2274   16.1218    0.0000 C   0  0  0  0  0  0  0  0  0  0  0  0
    0.0192   15.4242    0.0000 N   0  0  0  0  0  0  0  0  0  0  0  0
    1.2274   17.5169    0.0000 O   0  0  0  0  0  0  0  0  0  0  0  0
    3.2857   17.4765    0.0000 C   0  0  0  0  0  0  0  0  0  0  0  0
    4.2707   18.4788    0.0000 C   0  0  0  0  0  0  0  0  0  0  0  0
    2.9231   18.8399    0.0000 C   0  0  0  0  0  0  0  0  0  0  0  0
    2.5620   20.1875    0.0000 C   0  0  0  0  0  0  0  0  0  0  0  0
    1.2144   20.5486    0.0000 N   0  0  0  0  0  0  0  0  0  0  0  0
    3.5485   21.1740    0.0000 O   0  0  0  0  0  0  0  0  0  0  0  0
    7.1021   13.8799    0.0000 Co  0  2  0  0  0  0  0  0  0  0  0  0
   11.9222   14.5945    0.0000 C   0  0  0  0  0  0  0  0  0  0  0  0
   13.2882   14.8716    0.0000 N   0  0  0  0  0  0  0  0  0  0  0  0
  1  2  1  0  0  0  0
  2  3  1  0  0  0  0
  3  4  2  0  0  0  0
  4  5  1  0  0  0  0
  1  5  1  0  0  0  0
  3 22  1  0  0  0  0
  6  7  1  0  0  0  0
  7  8  1  0  0  0  0
  8  9  1  0  0  0  0
  9 10  1  0  0  0  0
  6 10  1  0  0  0  0
 10 16  2  0  0  0  0
 11 12  1  0  0  0  0
 12 13  1  0  0  0  0
 13 14  2  0  0  0  0
 14 15  1  0  0  0  0
 11 15  1  0  0  0  0
 15 23  2  0  0  0  0
 13 16  1  0  0  0  0
 17 18  1  0  0  0  0
 18 19  1  0  0  0  0
 19 20  2  0  0  0  0
 20 21  1  0  0  0  0
 17 21  1  0  0  0  0
 21 22  2  0  0  0  0
 19 23  1  0  0  0  0
  8  5  1  0  0  0  0
 16 24  1  0  0  0  0
 12 25  1  0  0  0  0
 12 26  1  1  0  0  0
 26 27  1  0  0  0  0
 27 28  1  0  0  0  0
 27 29  2  0  0  0  0
 11 30  1  6  0  0  0
 30 31  1  0  0  0  0
 31 32  1  0  0  0  0
 32 33  1  0  0  0  0
 32 34  2  0  0  0  0
 18 35  1  0  0  0  0
 18 36  1  0  0  0  0
 22 37  1  0  0  0  0
  2 38  1  0  0  0  0
  2 39  1  1  0  0  0
 38 40  1  0  0  0  0
 40 41  1  0  0  0  0
 41 42  1  0  0  0  0
 41 43  2  0  0  0  0
 17 44  1  6  0  0  0
 44 45  1  0  0  0  0
 45 46  1  0  0  0  0
 46 47  1  0  0  0  0
 46 48  2  0  0  0  0
 42 49  1  0  0  0  0
 49 50  1  0  0  0  0
 50 51  1  0  0  0  0
 50 52  1  6  0  0  0
 51 53  1  0  0  0  0
 53 54  1  0  0  0  0
 53 55  1  0  0  0  0
 53 56  2  0  0  0  0
 57 54  1  6  0  0  0
 57 58  1  0  0  0  0
 58 59  1  0  0  0  0
 59 60  1  0  0  0  0
 60 61  1  0  0  0  0
 61 57  1  0  0  0  0
 61 62  1  1  0  0  0
 62 63  1  0  0  0  0
 58 64  1  6  0  0  0
 59 65  1  6  0  0  0
 65 66  1  0  0  0  0
 66 67  2  0  0  0  0
 67 68  1  0  0  0  0
 68 69  2  0  0  0  0
 69 65  1  0  0  0  0
 68 70  1  0  0  0  0
 70 71  2  0  0  0  0
 71 72  1  0  0  0  0
 72 73  2  0  0  0  0
 73 69  1  0  0  0  0
 72 74  1  0  0  0  0
 71 75  1  0  0  0  0
  1 76  1  1  0  0  0
 76 77  1  0  0  0  0
 77 78  1  0  0  0  0
 77 79  2  0  0  0  0
  5 80  1  1  0  0  0
  8 81  1  6  0  0  0
  7 82  1  1  0  0  0
 82 83  1  0  0  0  0
 83 84  1  0  0  0  0
 83 85  2  0  0  0  0
  7 86  1  0  0  0  0
  6 87  1  6  0  0  0
 87 88  1  0  0  0  0
 88 89  1  0  0  0  0
 89 90  1  0  0  0  0
 89 91  2  0  0  0  0
 92 93  1  0  0  0  0
 93 94  3  0  0  0  0
M  END
>  <Mol_ID> (9)
189

>  <Formula> (9)
C63H88CoN14O14P

>  <MolWeight> (9)
1355.365181

>  <Cat> (9)
S1902

>  <Name> (9)
Vitamin B12

>  <Synonyms> (9)
Cobalamin, vitamin B-12, Cyanocobalamin 

>  <Target> (9)
Vitamin

>  <Form> (9)
Free Base

>  <CAS> (9)
68-19-9

>  <URL> (9)
http://www.selleckchem.com/products/Vitamin-B12.html

$$$$
Cilostazol.cdx
csChFnd80/01042310162D

 27 30  0  0  0  0  0  0  0  0999 V2000
    1.2082    4.6321    0.0000 C   0  0  0  0  0  0  0  0  0  0  0  0
    1.2082    3.2321    0.0000 C   0  0  0  0  0  0  0  0  0  0  0  0
    2.4207    2.5321    0.0000 N   0  0  0  0  0  0  0  0  0  0  0  0
    3.6331    3.2321    0.0000 C   0  0  0  0  0  0  0  0  0  0  0  0
    3.6331    4.6321    0.0000 C   0  0  0  0  0  0  0  0  0  0  0  0
    2.4207    5.3321    0.0000 C   0  0  0  0  0  0  0  0  0  0  0  0
    4.8455    2.5321    0.0000 C   0  0  0  0  0  0  0  0  0  0  0  0
    6.0580    3.2321    0.0000 C   0  0  0  0  0  0  0  0  0  0  0  0
    6.0580    4.6321    0.0000 C   0  0  0  0  0  0  0  0  0  0  0  0
    4.8455    5.3321    0.0000 C   0  0  0  0  0  0  0  0  0  0  0  0
    0.0000    2.5345    0.0000 O   0  0  0  0  0  0  0  0  0  0  0  0
    7.2662    5.3296    0.0000 O   0  0  0  0  0  0  0  0  0  0  0  0
    8.4744    4.6321    0.0000 C   0  0  0  0  0  0  0  0  0  0  0  0
    9.6826    5.3296    0.0000 C   0  0  0  0  0  0  0  0  0  0  0  0
   10.8909    4.6321    0.0000 C   0  0  0  0  0  0  0  0  0  0  0  0
   12.0991    5.3296    0.0000 C   0  0  0  0  0  0  0  0  0  0  0  0
   13.3073    4.6321    0.0000 C   0  0  0  0  0  0  0  0  0  0  0  0
   13.4537    3.2397    0.0000 N   0  0  0  0  0  0  0  0  0  0  0  0
   14.8231    2.9486    0.0000 N   0  0  0  0  0  0  0  0  0  0  0  0
   15.5231    4.1611    0.0000 N   0  0  0  0  0  0  0  0  0  0  0  0
   14.5863    5.2015    0.0000 N   0  0  0  0  0  0  0  0  0  0  0  0
   12.4169    2.3062    0.0000 C   0  0  0  0  0  0  0  0  0  0  0  0
   11.0854    2.7388    0.0000 C   0  0  0  0  0  0  0  0  0  0  0  0
   10.0450    1.8020    0.0000 C   0  0  0  0  0  0  0  0  0  0  0  0
   10.3361    0.4326    0.0000 C   0  0  0  0  0  0  0  0  0  0  0  0
   11.6676    0.0000    0.0000 C   0  0  0  0  0  0  0  0  0  0  0  0
   12.7080    0.9368    0.0000 C   0  0  0  0  0  0  0  0  0  0  0  0
  1  2  1  0  0  0  0
  2  3  1  0  0  0  0
  3  4  1  0  0  0  0
  4  5  2  0  0  0  0
  5  6  1  0  0  0  0
  6  1  1  0  0  0  0
  4  7  1  0  0  0  0
  7  8  2  0  0  0  0
  8  9  1  0  0  0  0
  9 10  2  0  0  0  0
 10  5  1  0  0  0  0
  2 11  2  0  0  0  0
  9 12  1  0  0  0  0
 12 13  1  0  0  0  0
 13 14  1  0  0  0  0
 14 15  1  0  0  0  0
 15 16  1  0  0  0  0
 16 17  1  0  0  0  0
 17 18  1  0  0  0  0
 18 19  1  0  0  0  0
 19 20  2  0  0  0  0
 20 21  1  0  0  0  0
 21 17  2  0  0  0  0
 18 22  1  0  0  0  0
 22 23  1  0  0  0  0
 23 24  1  0  0  0  0
 24 25  1  0  0  0  0
 25 26  1  0  0  0  0
 26 27  1  0  0  0  0
 27 22  1  0  0  0  0
M  END
>  <Mol_ID> (10)
203

>  <Formula> (10)
C20H27N5O2

>  <MolWeight> (10)
369.46068

>  <Cat> (10)
S1294

>  <Name> (10)
Cilostazol

>  <Synonyms> (10)
Pletal

>  <Target> (10)
PDE

>  <Form> (10)
Free Base

>  <CAS> (10)
73963-72-1

>  <URL> (10)
http://www.selleckchem.com/products/Cilostazol.html

$$$$
Floxuridine.cdx
csChFnd80/01042310162D

 17 18  0  0  0  0  0  0  0  0999 V2000
    3.4963    3.2831    0.0000 O   0  0  0  0  0  0  0  0  0  0  0  0
    2.3636    2.4602    0.0000 C   0  0  1  0  0  0  0  0  0  0  0  0
    2.7963    1.1287    0.0000 C   0  0  2  0  0  0  0  0  0  0  0  0
    4.1963    1.1287    0.0000 C   0  0  0  0  0  0  0  0  0  0  0  0
    4.6289    2.4602    0.0000 C   0  0  2  0  0  0  0  0  0  0  0  0
    5.9558    2.8913    0.0000 N   0  0  0  0  0  0  0  0  0  0  0  0
    1.0368    2.8913    0.0000 C   0  0  0  0  0  0  0  0  0  0  0  0
    0.0000    1.9578    0.0000 O   0  0  0  0  0  0  0  0  0  0  0  0
    1.9762    0.0000    0.0000 O   0  0  0  0  0  0  0  0  0  0  0  0
    6.9962    1.9545    0.0000 C   0  0  0  0  0  0  0  0  0  0  0  0
    8.3276    2.3871    0.0000 C   0  0  0  0  0  0  0  0  0  0  0  0
    8.6187    3.7565    0.0000 C   0  0  0  0  0  0  0  0  0  0  0  0
    7.5783    4.6933    0.0000 N   0  0  0  0  0  0  0  0  0  0  0  0
    6.2468    4.2607    0.0000 C   0  0  0  0  0  0  0  0  0  0  0  0
    5.2100    5.1942    0.0000 O   0  0  0  0  0  0  0  0  0  0  0  0
    9.3644    1.4536    0.0000 F   0  0  0  0  0  0  0  0  0  0  0  0
    9.9456    4.1877    0.0000 O   0  0  0  0  0  0  0  0  0  0  0  0
  1  2  1  0  0  0  0
  2  3  1  0  0  0  0
  3  4  1  0  0  0  0
  4  5  1  0  0  0  0
  5  1  1  0  0  0  0
  5  6  1  1  0  0  0
  2  7  1  1  0  0  0
  7  8  1  0  0  0  0
  3  9  1  6  0  0  0
  6 10  1  0  0  0  0
 10 11  2  0  0  0  0
 11 12  1  0  0  0  0
 12 13  1  0  0  0  0
 13 14  1  0  0  0  0
 14  6  1  0  0  0  0
 14 15  2  0  0  0  0
 11 16  1  0  0  0  0
 12 17  2  0  0  0  0
M  END
>  <Mol_ID> (11)
205

>  <Formula> (11)
C9H11FN2O5

>  <MolWeight> (11)
246.1924432

>  <Cat> (11)
S1299

>  <Name> (11)
Floxuridine

>  <Synonyms> (11)
Fludara, Fluorodeoxyuridine, FUDR, FdUrd, Floxuridin, FAMP 

>  <Target> (11)
DNA/RNA Synthesis

>  <Form> (11)
Free Base

>  <CAS> (11)
50-91-9

>  <URL> (11)
http://www.selleckchem.com/products/Floxuridine.html

$$$$
Ftorafur.cdx
csChFnd80/01042310162D

 14 15  0  0  0  0  0  0  0  0999 V2000
    1.2082    5.9430    0.0000 N   0  0  0  0  0  0  0  0  0  0  0  0
    1.2082    4.5430    0.0000 C   0  0  0  0  0  0  0  0  0  0  0  0
    2.4207    3.8430    0.0000 N   0  0  0  0  0  0  0  0  0  0  0  0
    3.6331    4.5430    0.0000 C   0  0  0  0  0  0  0  0  0  0  0  0
    3.6331    5.9430    0.0000 C   0  0  0  0  0  0  0  0  0  0  0  0
    2.4207    6.6430    0.0000 C   0  0  0  0  0  0  0  0  0  0  0  0
    2.4207    8.0382    0.0000 O   0  0  0  0  0  0  0  0  0  0  0  0
    4.8413    6.6406    0.0000 F   0  0  0  0  0  0  0  0  0  0  0  0
    0.0000    3.8455    0.0000 O   0  0  0  0  0  0  0  0  0  0  0  0
    2.5063    2.1982    0.0000 C   0  0  2  0  0  0  0  0  0  0  0  0
    1.4342    1.2979    0.0000 O   0  0  0  0  0  0  0  0  0  0  0  0
    1.9591    0.0000    0.0000 C   0  0  0  0  0  0  0  0  0  0  0  0
    3.3557    0.0982    0.0000 C   0  0  0  0  0  0  0  0  0  0  0  0
    3.6938    1.4568    0.0000 C   0  0  0  0  0  0  0  0  0  0  0  0
  1  2  1  0  0  0  0
  2  3  1  0  0  0  0
  3  4  1  0  0  0  0
  4  5  2  0  0  0  0
  5  6  1  0  0  0  0
  6  1  1  0  0  0  0
  6  7  2  0  0  0  0
  5  8  1  0  0  0  0
  2  9  2  0  0  0  0
 10  3  1  1  0  0  0
 10 11  1  0  0  0  0
 11 12  1  0  0  0  0
 12 13  1  0  0  0  0
 13 14  1  0  0  0  0
 14 10  1  0  0  0  0
M  END
>  <Mol_ID> (12)
206

>  <Formula> (12)
C8H9FN2O3

>  <MolWeight> (12)
200.1670632

>  <Cat> (12)
S1300

>  <Name> (12)
Tegafur (FT-207, NSC 148958)

>  <Synonyms> (12)
N/A

>  <Target> (12)
DNA/RNA Synthesis

>  <Form> (12)
Free Base

>  <CAS> (12)
17902-23-7

>  <URL> (12)
http://www.selleckchem.com/products/Ftorafur.html

$$$$

csChFnd80/01042310162D

 43 43  0  0  0  0  0  0  0  0999 V2000
    2.8000   -7.6238    0.0000 N   0  0  0  0  0  0  0  0  0  0  0  0
    2.8000   -9.0287    0.0000 C   0  0  0  0  0  0  0  0  0  0  0  0
    4.0167   -9.7311    0.0000 N   0  0  0  0  0  0  0  0  0  0  0  0
    5.2333   -9.0287    0.0000 C   0  0  0  0  0  0  0  0  0  0  0  0
    5.2333   -7.6238    0.0000 C   0  0  0  0  0  0  0  0  0  0  0  0
    4.0167   -6.9214    0.0000 C   0  0  0  0  0  0  0  0  0  0  0  0
    6.5694   -9.4628    0.0000 N   0  0  0  0  0  0  0  0  0  0  0  0
    7.3952   -8.3262    0.0000 C   0  0  0  0  0  0  0  0  0  0  0  0
    6.5694   -7.1897    0.0000 N   0  0  0  0  0  0  0  0  0  0  0  0
    4.0167   -5.5214    0.0000 N   0  0  0  0  0  0  0  0  0  0  0  0
    7.0021  -10.7943    0.0000 C   0  0  0  0  0  0  0  0  0  0  0  0
    8.3715  -11.0854    0.0000 C   0  0  2  0  0  0  0  0  0  0  0  0
    9.3649  -10.0920    0.0000 O   0  0  0  0  0  0  0  0  0  0  0  0
    8.7691  -12.4277    0.0000 C   0  0  0  0  0  0  0  0  0  0  0  0
   10.7172  -10.4543    0.0000 C   0  0  0  0  0  0  0  0  0  0  0  0
   11.7071   -9.4644    0.0000 P   0  0  0  0  0  0  0  0  0  0  0  0
   13.0594   -9.8267    0.0000 O   0  0  0  0  0  0  0  0  0  0  0  0
   14.0494   -8.8368    0.0000 C   0  0  0  0  0  0  0  0  0  0  0  0
   15.4016   -9.1991    0.0000 O   0  0  0  0  0  0  0  0  0  0  0  0
   16.3916   -8.2091    0.0000 C   0  0  0  0  0  0  0  0  0  0  0  0
   17.7439   -8.5715    0.0000 O   0  0  0  0  0  0  0  0  0  0  0  0
   16.0292   -6.8569    0.0000 O   0  0  0  0  0  0  0  0  0  0  0  0
   18.7338   -7.5815    0.0000 C   0  0  0  0  0  0  0  0  0  0  0  0
   20.0861   -7.9439    0.0000 C   0  0  0  0  0  0  0  0  0  0  0  0
   18.3715   -6.2293    0.0000 C   0  0  0  0  0  0  0  0  0  0  0  0
   11.3448   -8.1121    0.0000 O   0  0  0  0  0  0  0  0  0  0  0  0
   12.3347   -7.1221    0.0000 C   0  0  0  0  0  0  0  0  0  0  0  0
   11.9724   -5.7698    0.0000 O   0  0  0  0  0  0  0  0  0  0  0  0
   12.9623   -4.7799    0.0000 C   0  0  0  0  0  0  0  0  0  0  0  0
   12.6000   -3.4276    0.0000 O   0  0  0  0  0  0  0  0  0  0  0  0
   14.3146   -5.1422    0.0000 O   0  0  0  0  0  0  0  0  0  0  0  0
   15.3046   -4.1523    0.0000 C   0  0  0  0  0  0  0  0  0  0  0  0
   16.6569   -4.5146    0.0000 C   0  0  0  0  0  0  0  0  0  0  0  0
   14.9422   -2.8000    0.0000 C   0  0  0  0  0  0  0  0  0  0  0  0
   12.7005   -8.4710    0.0000 O   0  0  0  0  0  0  0  0  0  0  0  0
   23.3486   -7.9501    0.0000 C   0  0  0  0  0  0  0  0  0  0  0  0
   23.3486   -6.5452    0.0000 C   0  0  0  0  0  0  0  0  0  0  0  0
   24.5610   -5.8452    0.0000 C   0  0  0  0  0  0  0  0  0  0  0  0
   24.5610   -4.4452    0.0000 O   0  0  0  0  0  0  0  0  0  0  0  0
   25.7735   -6.5452    0.0000 O   0  0  0  0  0  0  0  0  0  0  0  0
   22.1362   -8.6501    0.0000 C   0  0  0  0  0  0  0  0  0  0  0  0
   22.1362  -10.0501    0.0000 O   0  0  0  0  0  0  0  0  0  0  0  0
   20.9237   -7.9501    0.0000 O   0  0  0  0  0  0  0  0  0  0  0  0
  1  2  1  0  0  0  0
  2  3  2  0  0  0  0
  3  4  1  0  0  0  0
  4  5  2  0  0  0  0
  5  6  1  0  0  0  0
  6  1  2  0  0  0  0
  4  7  1  0  0  0  0
  7  8  1  0  0  0  0
  8  9  2  0  0  0  0
  9  5  1  0  0  0  0
  6 10  1  0  0  0  0
  7 11  1  0  0  0  0
 11 12  1  0  0  0  0
 12 13  1  0  0  0  0
 12 14  1  6  0  0  0
 13 15  1  0  0  0  0
 15 16  1  0  0  0  0
 16 17  1  0  0  0  0
 17 18  1  0  0  0  0
 18 19  1  0  0  0  0
 19 20  1  0  0  0  0
 20 21  1  0  0  0  0
 20 22  2  0  0  0  0
 21 23  1  0  0  0  0
 23 24  1  0  0  0  0
 23 25  1  0  0  0  0
 16 26  1  0  0  0  0
 26 27  1  0  0  0  0
 27 28  1  0  0  0  0
 28 29  1  0  0  0  0
 29 30  2  0  0  0  0
 29 31  1  0  0  0  0
 31 32  1  0  0  0  0
 32 33  1  0  0  0  0
 32 34  1  0  0  0  0
 16 35  2  0  0  0  0
 36 37  2  0  0  0  0
 37 38  1  0  0  0  0
 36 41  1  0  0  0  0
 38 39  2  0  0  0  0
 38 40  1  0  0  0  0
 41 42  2  0  0  0  0
 41 43  1  0  0  0  0
M  END
>  <Mol_ID> (13)
253

>  <Formula> (13)
C23H34N5O14P

>  <MolWeight> (13)
635.514921

>  <Cat> (13)
S1400

>  <Name> (13)
Tenofovir Disoproxil Fumarate

>  <Synonyms> (13)
Viread

>  <Target> (13)
Reverse Transcriptase

>  <Form> (13)
Fumarate

>  <CAS> (13)
202138-50-9

>  <URL> (13)
http://www.selleckchem.com/products/Tenofovir-Disoproxil-Fumarate.html

$$$$
Tenofovir(PMPA).cdx
csChFnd80/01042310162D

 19 20  0  0  0  0  0  0  0  0999 V2000
    0.0000    4.7764    0.0000 N   0  0  0  0  0  0  0  0  0  0  0  0
    0.0000    3.3764    0.0000 C   0  0  0  0  0  0  0  0  0  0  0  0
    1.2124    2.6764    0.0000 N   0  0  0  0  0  0  0  0  0  0  0  0
    2.4249    3.3764    0.0000 C   0  0  0  0  0  0  0  0  0  0  0  0
    2.4249    4.7764    0.0000 C   0  0  0  0  0  0  0  0  0  0  0  0
    1.2124    5.4764    0.0000 C   0  0  0  0  0  0  0  0  0  0  0  0
    3.7564    2.9438    0.0000 N   0  0  0  0  0  0  0  0  0  0  0  0
    4.5793    4.0764    0.0000 C   0  0  0  0  0  0  0  0  0  0  0  0
    3.7564    5.2090    0.0000 N   0  0  0  0  0  0  0  0  0  0  0  0
    1.2124    6.8715    0.0000 N   0  0  0  0  0  0  0  0  0  0  0  0
    4.1875    1.6169    0.0000 C   0  0  0  0  0  0  0  0  0  0  0  0
    5.5521    1.3269    0.0000 C   0  0  2  0  0  0  0  0  0  0  0  0
    6.4857    2.3636    0.0000 O   0  0  0  0  0  0  0  0  0  0  0  0
    7.8503    2.0736    0.0000 C   0  0  0  0  0  0  0  0  0  0  0  0
    8.7838    3.1104    0.0000 P   0  0  0  0  0  0  0  0  0  0  0  0
    7.7939    4.1003    0.0000 O   0  0  0  0  0  0  0  0  0  0  0  0
    9.7738    4.1003    0.0000 O   0  0  0  0  0  0  0  0  0  0  0  0
    9.7738    2.1204    0.0000 O   0  0  0  0  0  0  0  0  0  0  0  0
    5.9832    0.0000    0.0000 C   0  0  0  0  0  0  0  0  0  0  0  0
  1  2  2  0  0  0  0
  2  3  1  0  0  0  0
  3  4  2  0  0  0  0
  4  5  1  0  0  0  0
  5  6  2  0  0  0  0
  6  1  1  0  0  0  0
  4  7  1  0  0  0  0
  7  8  1  0  0  0  0
  8  9  2  0  0  0  0
  9  5  1  0  0  0  0
  6 10  1  0  0  0  0
  7 11  1  0  0  0  0
 11 12  1  0  0  0  0
 12 13  1  0  0  0  0
 13 14  1  0  0  0  0
 14 15  1  0  0  0  0
 12 19  1  6  0  0  0
 15 16  2  0  0  0  0
 15 17  1  0  0  0  0
 15 18  1  0  0  0  0
M  END
>  <Mol_ID> (14)
254

>  <Formula> (14)
C9H14N5O4P

>  <MolWeight> (14)
287.212321

>  <Cat> (14)
S1401

>  <Name> (14)
Tenofovir (Viread)

>  <Synonyms> (14)
Viread

>  <Target> (14)
Reverse Transcriptase

>  <Form> (14)
Free Base

>  <CAS> (14)
147127-20-6

>  <URL> (14)
http://www.selleckchem.com/products/Tenofovir.html

$$$$
Fludarabine.cdx
csChFnd80/01042310162D

 20 22  0  0  0  0  0  0  0  0999 V2000
    2.6550    3.6175    0.0000 O   0  0  0  0  0  0  0  0  0  0  0  0
    1.9550    2.4051    0.0000 C   0  0  1  0  0  0  0  0  0  0  0  0
    2.8917    1.3647    0.0000 C   0  0  2  0  0  0  0  0  0  0  0  0
    4.1707    1.9341    0.0000 C   0  0  1  0  0  0  0  0  0  0  0  0
    4.0244    3.3264    0.0000 C   0  0  2  0  0  0  0  0  0  0  0  0
    5.0611    4.2599    0.0000 N   0  0  0  0  0  0  0  0  0  0  0  0
    6.4306    3.9689    0.0000 C   0  0  0  0  0  0  0  0  0  0  0  0
    7.1306    5.1813    0.0000 C   0  0  0  0  0  0  0  0  0  0  0  0
    6.1938    6.2217    0.0000 N   0  0  0  0  0  0  0  0  0  0  0  0
    4.9148    5.6523    0.0000 C   0  0  0  0  0  0  0  0  0  0  0  0
    7.1306    2.7564    0.0000 N   0  0  0  0  0  0  0  0  0  0  0  0
    8.5306    2.7564    0.0000 C   0  0  0  0  0  0  0  0  0  0  0  0
    9.2306    3.9689    0.0000 N   0  0  0  0  0  0  0  0  0  0  0  0
    8.5306    5.1813    0.0000 C   0  0  0  0  0  0  0  0  0  0  0  0
    9.2281    6.3895    0.0000 N   0  0  0  0  0  0  0  0  0  0  0  0
    9.2281    1.5482    0.0000 F   0  0  0  0  0  0  0  0  0  0  0  0
    0.5675    2.2592    0.0000 C   0  0  0  0  0  0  0  0  0  0  0  0
    5.3789    1.2365    0.0000 O   0  0  0  0  0  0  0  0  0  0  0  0
    0.0000    0.9847    0.0000 O   0  0  0  0  0  0  0  0  0  0  0  0
    2.6017    0.0000    0.0000 O   0  0  0  0  0  0  0  0  0  0  0  0
  1  2  1  0  0  0  0
  2  3  1  0  0  0  0
  3  4  1  0  0  0  0
  4  5  1  0  0  0  0
  5  1  1  0  0  0  0
  6  7  1  0  0  0  0
  7  8  2  0  0  0  0
  8  9  1  0  0  0  0
  9 10  2  0  0  0  0
 10  6  1  0  0  0  0
  7 11  1  0  0  0  0
 11 12  2  0  0  0  0
 12 13  1  0  0  0  0
 13 14  2  0  0  0  0
 14  8  1  0  0  0  0
 14 15  1  0  0  0  0
 12 16  1  0  0  0  0
  5  6  1  1  0  0  0
  2 17  1  1  0  0  0
  4 18  1  1  0  0  0
 17 19  1  0  0  0  0
  3 20  1  6  0  0  0
M  END
>  <Mol_ID> (15)
309

>  <Formula> (15)
C10H12FN5O4

>  <MolWeight> (15)
285.2317832

>  <Cat> (15)
S1491

>  <Name> (15)
Fludarabine (Fludara)

>  <Synonyms> (15)
F-ara-A, NSC 118218 

>  <Target> (15)
STAT, DNA/RNA Synthesis

>  <Form> (15)
Free Base

>  <CAS> (15)
21679-14-1

>  <URL> (15)
http://www.selleckchem.com/products/Fludarabine(Fludara).html

$$$$
CELLCEPT (mycophenolate mofetil).cdx
csChFnd80/01042310162D

 31 33  0  0  0  0  0  0  0  0999 V2000
    2.1544    3.4951    0.0000 C   0  0  0  0  0  0  0  0  0  0  0  0
    2.1544    2.0951    0.0000 C   0  0  0  0  0  0  0  0  0  0  0  0
    3.3668    1.3951    0.0000 C   0  0  0  0  0  0  0  0  0  0  0  0
    4.5793    2.0951    0.0000 C   0  0  0  0  0  0  0  0  0  0  0  0
    4.5793    3.4951    0.0000 C   0  0  0  0  0  0  0  0  0  0  0  0
    3.3668    4.1951    0.0000 C   0  0  0  0  0  0  0  0  0  0  0  0
    0.8229    3.9278    0.0000 C   0  0  0  0  0  0  0  0  0  0  0  0
    0.0000    2.7951    0.0000 O   0  0  0  0  0  0  0  0  0  0  0  0
    0.8229    1.6625    0.0000 C   0  0  0  0  0  0  0  0  0  0  0  0
    5.7917    1.3951    0.0000 O   0  0  0  0  0  0  0  0  0  0  0  0
    7.0041    3.4951    0.0000 C   0  0  0  0  0  0  0  0  0  0  0  0
    5.7917    4.1951    0.0000 C   0  0  0  0  0  0  0  0  0  0  0  0
    0.3918    5.2546    0.0000 O   0  0  0  0  0  0  0  0  0  0  0  0
    3.3668    0.0000    0.0000 C   0  0  0  0  0  0  0  0  0  0  0  0
    3.3668    5.5903    0.0000 O   0  0  0  0  0  0  0  0  0  0  0  0
    6.9999    2.0927    0.0000 C   0  0  0  0  0  0  0  0  0  0  0  0
    8.2124    4.1927    0.0000 C   0  0  0  0  0  0  0  0  0  0  0  0
    9.4206    3.4951    0.0000 C   0  0  0  0  0  0  0  0  0  0  0  0
    8.2124    5.5879    0.0000 C   0  0  0  0  0  0  0  0  0  0  0  0
   10.6288    4.1927    0.0000 C   0  0  0  0  0  0  0  0  0  0  0  0
   11.8370    3.4951    0.0000 C   0  0  0  0  0  0  0  0  0  0  0  0
   13.0453    4.1927    0.0000 O   0  0  0  0  0  0  0  0  0  0  0  0
   11.8370    2.1000    0.0000 O   0  0  0  0  0  0  0  0  0  0  0  0
   14.2535    3.4951    0.0000 C   0  0  0  0  0  0  0  0  0  0  0  0
   15.4617    4.1927    0.0000 C   0  0  0  0  0  0  0  0  0  0  0  0
   16.6699    3.4951    0.0000 N   0  0  0  0  0  0  0  0  0  0  0  0
   16.6699    2.0951    0.0000 C   0  0  0  0  0  0  0  0  0  0  0  0
   17.8824    1.3951    0.0000 C   0  0  0  0  0  0  0  0  0  0  0  0
   19.0948    2.0951    0.0000 O   0  0  0  0  0  0  0  0  0  0  0  0
   19.0948    3.4951    0.0000 C   0  0  0  0  0  0  0  0  0  0  0  0
   17.8824    4.1951    0.0000 C   0  0  0  0  0  0  0  0  0  0  0  0
  1  2  2  0  0  0  0
  2  3  1  0  0  0  0
  3  4  2  0  0  0  0
  4  5  1  0  0  0  0
  5  6  2  0  0  0  0
  6  1  1  0  0  0  0
  1  7  1  0  0  0  0
  7  8  1  0  0  0  0
  8  9  1  0  0  0  0
  9  2  1  0  0  0  0
  4 10  1  0  0  0  0
 11 12  1  0  0  0  0
 12  5  1  0  0  0  0
  7 13  2  0  0  0  0
  3 14  1  0  0  0  0
  6 15  1  0  0  0  0
 10 16  1  0  0  0  0
 11 17  2  0  0  0  0
 17 18  1  0  0  0  0
 17 19  1  0  0  0  0
 18 20  1  0  0  0  0
 20 21  1  0  0  0  0
 21 22  1  0  0  0  0
 21 23  2  0  0  0  0
 22 24  1  0  0  0  0
 24 25  1  0  0  0  0
 25 26  1  0  0  0  0
 26 27  1  0  0  0  0
 27 28  1  0  0  0  0
 28 29  1  0  0  0  0
 29 30  1  0  0  0  0
 30 31  1  0  0  0  0
 31 26  1  0  0  0  0
M  END
>  <Mol_ID> (16)
311

>  <Formula> (16)
C23H31NO7

>  <MolWeight> (16)
433.49474

>  <Cat> (16)
S1501

>  <Name> (16)
Mycophenolate mofetil (CellCept)

>  <Synonyms> (16)
CellCept, RS 61443, TM-MMF

>  <Target> (16)
Dehydrogenase

>  <Form> (16)
Free Base

>  <CAS> (16)
128794-94-5

>  <URL> (16)
http://www.selleckchem.com/products/Mycophenolate-mofetil-(CellCept).html

$$$$
2-Thiouracil.cdx
csChFnd80/01042310162D

  8  8  0  0  0  0  0  0  0  0999 V2000
    3.6373    2.1000    0.0000 N   0  0  0  0  0  0  0  0  0  0  0  0
    3.6373    0.7000    0.0000 C   0  0  0  0  0  0  0  0  0  0  0  0
    4.8497    0.0000    0.0000 S   0  0  0  0  0  0  0  0  0  0  0  0
    2.4249    0.0000    0.0000 N   0  0  0  0  0  0  0  0  0  0  0  0
    1.2124    0.7000    0.0000 C   0  0  0  0  0  0  0  0  0  0  0  0
    0.0000    0.0000    0.0000 O   0  0  0  0  0  0  0  0  0  0  0  0
    1.2124    2.1000    0.0000 C   0  0  0  0  0  0  0  0  0  0  0  0
    2.4249    2.8000    0.0000 C   0  0  0  0  0  0  0  0  0  0  0  0
  1  2  1  0  0  0  0
  2  3  2  0  0  0  0
  2  4  1  0  0  0  0
  4  5  1  0  0  0  0
  5  6  2  0  0  0  0
  5  7  1  0  0  0  0
  7  8  2  0  0  0  0
  1  8  1  0  0  0  0
M  END
>  <Mol_ID> (17)
329

>  <Formula> (17)
C4H4N2OS

>  <MolWeight> (17)
128.15236

>  <Cat> (17)
S3100

>  <Name> (17)
2-Thiouracil

>  <Synonyms> (17)
N/A 

>  <Target> (17)
Others

>  <Form> (17)
Free Base

>  <CAS> (17)
141-90-2

>  <URL> (17)
http://www.selleckchem.com/products/2-thiouracil.html

$$$$
ALLOPURINOL (allopurinol).cdx
csChFnd80/01042310162D

 10 11  0  0  0  0  0  0  0  0999 V2000
    0.0000    2.1000    0.0000 N   0  0  0  0  0  0  0  0  0  0  0  0
    0.0000    0.7000    0.0000 C   0  0  0  0  0  0  0  0  0  0  0  0
    1.2124    0.0000    0.0000 N   0  0  0  0  0  0  0  0  0  0  0  0
    2.4249    0.7000    0.0000 C   0  0  0  0  0  0  0  0  0  0  0  0
    2.4249    2.1000    0.0000 C   0  0  0  0  0  0  0  0  0  0  0  0
    1.2124    2.8000    0.0000 C   0  0  0  0  0  0  0  0  0  0  0  0
    3.7564    0.2674    0.0000 N   0  0  0  0  0  0  0  0  0  0  0  0
    4.5793    1.4000    0.0000 N   0  0  0  0  0  0  0  0  0  0  0  0
    3.7564    2.5326    0.0000 C   0  0  0  0  0  0  0  0  0  0  0  0
    1.2124    4.1951    0.0000 O   0  0  0  0  0  0  0  0  0  0  0  0
  1  2  2  0  0  0  0
  2  3  1  0  0  0  0
  3  4  2  0  0  0  0
  4  5  1  0  0  0  0
  5  6  1  0  0  0  0
  6  1  1  0  0  0  0
  4  7  1  0  0  0  0
  7  8  1  0  0  0  0
  8  9  1  0  0  0  0
  9  5  2  0  0  0  0
  6 10  2  0  0  0  0
M  END
>  <Mol_ID> (18)
380

>  <Formula> (18)
C5H4N4O

>  <MolWeight> (18)
136.11146

>  <Cat> (18)
S1630

>  <Name> (18)
Allopurinol (Zyloprim)

>  <Synonyms> (18)
Aloprim

>  <Target> (18)
Others

>  <Form> (18)
Free Base

>  <CAS> (18)
315-30-0

>  <URL> (18)
http://www.selleckchem.com/products/Allopurinol(Zyloprim).html

$$$$
ALOPRIM (allopurinol sodium).cdx
csChFnd80/01042310162D

 11 11  0  0  0  0  0  0  0  0999 V2000
    0.0000    3.6157    0.0000 C   0  0  0  0  0  0  0  0  0  0  0  0
    0.0000    2.2157    0.0000 N   0  0  0  0  0  0  0  0  0  0  0  0
    1.2124    1.5157    0.0000 C   0  0  0  0  0  0  0  0  0  0  0  0
    2.4249    2.2157    0.0000 C   0  0  0  0  0  0  0  0  0  0  0  0
    2.4249    3.6157    0.0000 C   0  0  0  0  0  0  0  0  0  0  0  0
    1.2124    4.3157    0.0000 N   0  0  0  0  0  0  0  0  0  0  0  0
    1.5035    0.1463    0.0000 N   0  0  0  0  0  0  0  0  0  0  0  0
    2.8958    0.0000    0.0000 N   0  0  0  0  0  0  0  0  0  0  0  0
    3.4653    1.2790    0.0000 C   0  0  0  0  0  0  0  0  0  0  0  0
    3.6331    4.3133    0.0000 O   0  0  0  0  0  0  0  0  0  0  0  0
    5.7834    3.2220    0.0000 Na  0  3  0  0  0  0  0  0  0  0  0  0
  1  2  2  0  0  0  0
  2  3  1  0  0  0  0
  3  4  2  0  0  0  0
  4  5  1  0  0  0  0
  5  6  1  0  0  0  0
  6  1  1  0  0  0  0
  3  7  1  0  0  0  0
  7  8  1  0  0  0  0
  8  9  2  0  0  0  0
  9  4  1  0  0  0  0
  5 10  2  0  0  0  0
M  END
>  <Mol_ID> (19)
381

>  <Formula> (19)
C5H4N4NaO+

>  <MolWeight> (19)
159.10123

>  <Cat> (19)
S1631

>  <Name> (19)
Allopurinol Sodium (Aloprim)

>  <Synonyms> (19)
 Lopurin, Zyloprim, Aloprim

>  <Target> (19)
Others

>  <Form> (19)
Sodium Salt

>  <CAS> (19)
17795-21-0

>  <URL> (19)
http://www.selleckchem.com/products/Allopurinol-Sodium(Aloprim).html

$$$$
Adenosine.cdx
csChFnd80/01042310162D

 19 21  0  0  0  0  0  0  0  0999 V2000
    3.6157    3.4240    0.0000 O   0  0  0  0  0  0  0  0  0  0  0  0
    2.4032    2.7240    0.0000 C   0  0  1  0  0  0  0  0  0  0  0  0
    2.6943    1.3546    0.0000 C   0  0  2  0  0  0  0  0  0  0  0  0
    4.0866    1.2082    0.0000 C   0  0  2  0  0  0  0  0  0  0  0  0
    4.6561    2.4872    0.0000 C   0  0  2  0  0  0  0  0  0  0  0  0
    1.1287    3.2914    0.0000 C   0  0  0  0  0  0  0  0  0  0  0  0
    6.0207    2.7773    0.0000 N   0  0  0  0  0  0  0  0  0  0  0  0
    1.7608    0.3178    0.0000 O   0  0  0  0  0  0  0  0  0  0  0  0
    4.7842    0.0000    0.0000 O   0  0  0  0  0  0  0  0  0  0  0  0
    0.0000    2.4714    0.0000 O   0  0  0  0  0  0  0  0  0  0  0  0
    7.3730    3.1396    0.0000 C   0  0  0  0  0  0  0  0  0  0  0  0
    7.4463    4.5377    0.0000 C   0  0  0  0  0  0  0  0  0  0  0  0
    6.1393    5.0394    0.0000 N   0  0  0  0  0  0  0  0  0  0  0  0
    5.2582    3.9514    0.0000 C   0  0  0  0  0  0  0  0  0  0  0  0
    8.5471    2.3771    0.0000 N   0  0  0  0  0  0  0  0  0  0  0  0
    9.7946    3.0127    0.0000 C   0  0  0  0  0  0  0  0  0  0  0  0
    9.8678    4.4108    0.0000 N   0  0  0  0  0  0  0  0  0  0  0  0
    8.6937    5.1733    0.0000 C   0  0  0  0  0  0  0  0  0  0  0  0
    8.7667    6.5665    0.0000 N   0  0  0  0  0  0  0  0  0  0  0  0
  1  2  1  0  0  0  0
  2  3  1  0  0  0  0
  3  4  1  0  0  0  0
  4  5  1  0  0  0  0
  5  1  1  0  0  0  0
  2  6  1  1  0  0  0
  5  7  1  1  0  0  0
  3  8  1  6  0  0  0
  4  9  1  6  0  0  0
  6 10  1  0  0  0  0
  7 11  1  0  0  0  0
 11 12  2  0  0  0  0
 12 13  1  0  0  0  0
 13 14  2  0  0  0  0
 14  7  1  0  0  0  0
 11 15  1  0  0  0  0
 15 16  2  0  0  0  0
 16 17  1  0  0  0  0
 17 18  2  0  0  0  0
 18 12  1  0  0  0  0
 18 19  1  0  0  0  0
M  END
>  <Mol_ID> (20)
389

>  <Formula> (20)
C10H13N5O4

>  <MolWeight> (20)
267.24132

>  <Cat> (20)
S1647

>  <Name> (20)
Adenosine (Adenocard)

>  <Synonyms> (20)
Adenocard

>  <Target> (20)
Others

>  <Form> (20)
Free Base

>  <CAS> (20)
58-61-7

>  <URL> (20)
http://www.selleckchem.com/products/Adenosine(Adenocard).html

$$$$
TYZEKA (telbivudine).cdx
csChFnd80/01042310162D

 17 18  0  0  0  0  0  0  0  0999 V2000
    2.3376    4.3937    0.0000 N   0  0  0  0  0  0  0  0  0  0  0  0
    1.3476    3.4038    0.0000 C   0  0  0  0  0  0  0  0  0  0  0  0
    1.7099    2.0515    0.0000 C   0  0  0  0  0  0  0  0  0  0  0  0
    3.0622    1.6891    0.0000 C   0  0  0  0  0  0  0  0  0  0  0  0
    4.0522    2.6791    0.0000 N   0  0  0  0  0  0  0  0  0  0  0  0
    3.6898    4.0314    0.0000 C   0  0  0  0  0  0  0  0  0  0  0  0
    4.6764    5.0179    0.0000 O   0  0  0  0  0  0  0  0  0  0  0  0
    0.0000    3.7648    0.0000 O   0  0  0  0  0  0  0  0  0  0  0  0
    0.7234    1.0649    0.0000 C   0  0  0  0  0  0  0  0  0  0  0  0
    5.3998    2.3180    0.0000 C   0  0  2  0  0  0  0  0  0  0  0  0
    5.9015    1.0110    0.0000 C   0  0  0  0  0  0  0  0  0  0  0  0
    7.2996    1.0842    0.0000 C   0  0  2  0  0  0  0  0  0  0  0  0
    7.6619    2.4365    0.0000 C   0  0  1  0  0  0  0  0  0  0  0  0
    6.4878    3.1990    0.0000 O   0  0  0  0  0  0  0  0  0  0  0  0
    8.9644    2.9365    0.0000 C   0  0  0  0  0  0  0  0  0  0  0  0
    8.1776    0.0000    0.0000 O   0  0  0  0  0  0  0  0  0  0  0  0
   10.0486    2.0585    0.0000 O   0  0  0  0  0  0  0  0  0  0  0  0
  1  2  1  0  0  0  0
  2  3  1  0  0  0  0
  3  4  2  0  0  0  0
  4  5  1  0  0  0  0
  5  6  1  0  0  0  0
  6  1  1  0  0  0  0
  6  7  2  0  0  0  0
  2  8  2  0  0  0  0
  3  9  1  0  0  0  0
 10 11  1  0  0  0  0
 11 12  1  0  0  0  0
 12 13  1  0  0  0  0
 13 14  1  0  0  0  0
 14 10  1  0  0  0  0
 10  5  1  1  0  0  0
 13 15  1  1  0  0  0
 12 16  1  6  0  0  0
 15 17  1  0  0  0  0
M  END
>  <Mol_ID> (21)
394

>  <Formula> (21)
C10H14N2O5

>  <MolWeight> (21)
242.22856

>  <Cat> (21)
S1651

>  <Name> (21)
Telbivudine (Sebivo, Tyzeka)

>  <Synonyms> (21)
N/A

>  <Target> (21)
Reverse Transcriptase

>  <Form> (21)
Free Base

>  <CAS> (21)
3424-98-4

>  <URL> (21)
http://www.selleckchem.com/products/Telbivudine(Sebivo).html

$$$$
ANCOBON (flucytosine).cdx
csChFnd80/01042310162D

  9  9  0  0  0  0  0  0  0  0999 V2000
    1.2082    2.1000    0.0000 C   0  0  0  0  0  0  0  0  0  0  0  0
    1.2082    0.7000    0.0000 N   0  0  0  0  0  0  0  0  0  0  0  0
    2.4207    0.0000    0.0000 C   0  0  0  0  0  0  0  0  0  0  0  0
    3.6331    0.7000    0.0000 C   0  0  0  0  0  0  0  0  0  0  0  0
    3.6331    2.1000    0.0000 C   0  0  0  0  0  0  0  0  0  0  0  0
    2.4207    2.8000    0.0000 N   0  0  0  0  0  0  0  0  0  0  0  0
    0.0000    2.7976    0.0000 O   0  0  0  0  0  0  0  0  0  0  0  0
    4.8413    0.0024    0.0000 F   0  0  0  0  0  0  0  0  0  0  0  0
    4.8413    2.7976    0.0000 N   0  0  0  0  0  0  0  0  0  0  0  0
  1  2  1  0  0  0  0
  2  3  1  0  0  0  0
  3  4  2  0  0  0  0
  4  5  1  0  0  0  0
  5  6  2  0  0  0  0
  6  1  1  0  0  0  0
  1  7  2  0  0  0  0
  4  8  1  0  0  0  0
  5  9  1  0  0  0  0
M  END
>  <Mol_ID> (22)
402

>  <Formula> (22)
C4H4FN3O

>  <MolWeight> (22)
129.0924632

>  <Cat> (22)
S1666

>  <Name> (22)
Flucytosine (Ancobon)

>  <Synonyms> (22)
5-fluorocytosine, Ancotil

>  <Target> (22)
Antifection

>  <Form> (22)
Free Base

>  <CAS> (22)
2022-85-7

>  <URL> (22)
http://www.selleckchem.com/products/Flucytosine(Ancobon).html

$$$$
GEMCITABINE (gemcitabine).cdx
csChFnd80/01042310162D

 18 19  0  0  0  0  0  0  0  0999 V2000
    1.2082    2.1000    0.0000 N   0  0  0  0  0  0  0  0  0  0  0  0
    1.2082    0.7000    0.0000 C   0  0  0  0  0  0  0  0  0  0  0  0
    2.4207    0.0000    0.0000 C   0  0  0  0  0  0  0  0  0  0  0  0
    3.6331    0.7000    0.0000 C   0  0  0  0  0  0  0  0  0  0  0  0
    3.6331    2.1000    0.0000 N   0  0  0  0  0  0  0  0  0  0  0  0
    2.4207    2.8000    0.0000 C   0  0  0  0  0  0  0  0  0  0  0  0
    0.0000    0.0024    0.0000 N   0  0  0  0  0  0  0  0  0  0  0  0
    2.4207    4.1951    0.0000 O   0  0  0  0  0  0  0  0  0  0  0  0
    4.8413    2.7976    0.0000 C   0  0  2  0  0  0  0  0  0  0  0  0
    6.1203    2.2281    0.0000 O   0  0  0  0  0  0  0  0  0  0  0  0
    7.0571    3.2685    0.0000 C   0  0  1  0  0  0  0  0  0  0  0  0
    6.3571    4.4810    0.0000 C   0  0  2  0  0  0  0  0  0  0  0  0
    4.9877    4.1899    0.0000 C   0  0  0  0  0  0  0  0  0  0  0  0
    8.4446    3.1227    0.0000 C   0  0  0  0  0  0  0  0  0  0  0  0
    6.9245    5.7555    0.0000 O   0  0  0  0  0  0  0  0  0  0  0  0
    9.0120    1.8482    0.0000 O   0  0  0  0  0  0  0  0  0  0  0  0
    3.6354    4.5523    0.0000 F   0  0  0  0  0  0  0  0  0  0  0  0
    4.9877    5.5899    0.0000 F   0  0  0  0  0  0  0  0  0  0  0  0
  1  2  2  0  0  0  0
  2  3  1  0  0  0  0
  3  4  2  0  0  0  0
  4  5  1  0  0  0  0
  5  6  1  0  0  0  0
  6  1  1  0  0  0  0
  2  7  1  0  0  0  0
  6  8  2  0  0  0  0
  9  5  1  1  0  0  0
  9 10  1  0  0  0  0
 10 11  1  0  0  0  0
 11 12  1  0  0  0  0
 12 13  1  0  0  0  0
 13  9  1  0  0  0  0
 11 14  1  1  0  0  0
 12 15  1  6  0  0  0
 14 16  1  0  0  0  0
 13 17  1  0  0  0  0
 13 18  1  0  0  0  0
M  END
>  <Mol_ID> (23)
417

>  <Formula> (23)
C9H11F2N3O4

>  <MolWeight> (23)
263.1981464

>  <Cat> (23)
S1714

>  <Name> (23)
Gemcitabine (Gemzar)

>  <Synonyms> (23)
Gemzar

>  <Target> (23)
Autophagy,DNA/RNA Synthesis

>  <Form> (23)
Free Base

>  <CAS> (23)
95058-81-4 

>  <URL> (23)
http://www.selleckchem.com/products/Gemcitabine(Gemzar).html

$$$$
DIDANOSINE (didanosine).cdx
csChFnd80/01042310162D

 17 19  0  0  0  0  0  0  0  0999 V2000
    2.4032    4.1388    0.0000 C   0  0  2  0  0  0  0  0  0  0  0  0
    2.4032    2.7388    0.0000 C   0  0  0  0  0  0  0  0  0  0  0  0
    3.7347    2.3062    0.0000 C   0  0  0  0  0  0  0  0  0  0  0  0
    4.5576    3.4388    0.0000 C   0  0  1  0  0  0  0  0  0  0  0  0
    3.7347    4.5714    0.0000 O   0  0  0  0  0  0  0  0  0  0  0  0
    1.2745    4.9589    0.0000 C   0  0  0  0  0  0  0  0  0  0  0  0
    0.0000    4.3914    0.0000 O   0  0  0  0  0  0  0  0  0  0  0  0
    5.9527    3.4388    0.0000 N   0  0  0  0  0  0  0  0  0  0  0  0
    6.7756    2.3062    0.0000 C   0  0  0  0  0  0  0  0  0  0  0  0
    8.1071    2.7388    0.0000 C   0  0  0  0  0  0  0  0  0  0  0  0
    8.1071    4.1388    0.0000 N   0  0  0  0  0  0  0  0  0  0  0  0
    6.7756    4.5714    0.0000 C   0  0  0  0  0  0  0  0  0  0  0  0
    6.4846    0.9368    0.0000 N   0  0  0  0  0  0  0  0  0  0  0  0
    7.5250    0.0000    0.0000 C   0  0  0  0  0  0  0  0  0  0  0  0
    8.8564    0.4326    0.0000 N   0  0  0  0  0  0  0  0  0  0  0  0
    9.1475    1.8020    0.0000 C   0  0  0  0  0  0  0  0  0  0  0  0
   10.4744    2.2332    0.0000 O   0  0  0  0  0  0  0  0  0  0  0  0
  1  2  1  0  0  0  0
  2  3  1  0  0  0  0
  3  4  1  0  0  0  0
  4  5  1  0  0  0  0
  5  1  1  0  0  0  0
  1  6  1  1  0  0  0
  6  7  1  0  0  0  0
  8  9  1  0  0  0  0
  9 10  2  0  0  0  0
 10 11  1  0  0  0  0
 11 12  2  0  0  0  0
 12  8  1  0  0  0  0
  9 13  1  0  0  0  0
 13 14  2  0  0  0  0
 14 15  1  0  0  0  0
 15 16  1  0  0  0  0
 16 10  1  0  0  0  0
 16 17  2  0  0  0  0
  4  8  1  1  0  0  0
M  END
>  <Mol_ID> (24)
421

>  <Formula> (24)
C10H12N4O3

>  <MolWeight> (24)
236.22728

>  <Cat> (24)
S1702

>  <Name> (24)
Didanosine (Videx)

>  <Synonyms> (24)
Videx EC 

>  <Target> (24)
NULL

>  <Form> (24)
Free Base

>  <CAS> (24)
69655-05-6

>  <URL> (24)
http://www.selleckchem.com/products/Didanosine(Videx).html

$$$$
EPIVIR (lamivudine).cdx
csChFnd80/01042310162D

 15 16  0  0  0  0  0  0  0  0999 V2000
    1.2082    2.1000    0.0000 N   0  0  0  0  0  0  0  0  0  0  0  0
    1.2082    0.7000    0.0000 C   0  0  0  0  0  0  0  0  0  0  0  0
    2.4207    0.0000    0.0000 C   0  0  0  0  0  0  0  0  0  0  0  0
    3.6331    0.7000    0.0000 C   0  0  0  0  0  0  0  0  0  0  0  0
    3.6331    2.1000    0.0000 N   0  0  0  0  0  0  0  0  0  0  0  0
    2.4207    2.8000    0.0000 C   0  0  0  0  0  0  0  0  0  0  0  0
    0.0000    0.0024    0.0000 N   0  0  0  0  0  0  0  0  0  0  0  0
    2.4207    4.1951    0.0000 O   0  0  0  0  0  0  0  0  0  0  0  0
    4.8413    2.7976    0.0000 C   0  0  1  0  0  0  0  0  0  0  0  0
    6.1203    2.2281    0.0000 O   0  0  0  0  0  0  0  0  0  0  0  0
    7.0571    3.2685    0.0000 C   0  0  2  0  0  0  0  0  0  0  0  0
    6.3571    4.4810    0.0000 S   0  0  0  0  0  0  0  0  0  0  0  0
    4.9877    4.1899    0.0000 C   0  0  0  0  0  0  0  0  0  0  0  0
    8.4446    3.1227    0.0000 C   0  0  0  0  0  0  0  0  0  0  0  0
    9.2646    4.2514    0.0000 O   0  0  0  0  0  0  0  0  0  0  0  0
  1  2  2  0  0  0  0
  2  3  1  0  0  0  0
  3  4  2  0  0  0  0
  4  5  1  0  0  0  0
  5  6  1  0  0  0  0
  6  1  1  0  0  0  0
  2  7  1  0  0  0  0
  6  8  2  0  0  0  0
  9 10  1  0  0  0  0
 10 11  1  0  0  0  0
 11 12  1  0  0  0  0
 12 13  1  0  0  0  0
 13  9  1  0  0  0  0
  9  5  1  6  0  0  0
 11 14  1  6  0  0  0
 14 15  1  0  0  0  0
M  END
>  <Mol_ID> (25)
424

>  <Formula> (25)
C8H11N3O3S

>  <MolWeight> (25)
229.25624

>  <Cat> (25)
S1706

>  <Name> (25)
Lamivudine (Epivir)

>  <Synonyms> (25)
3TC, Zeffix, Heptovir, Epivir, Epivir-HBV 

>  <Target> (25)
Reverse Transcriptase

>  <Form> (25)
Free Base

>  <CAS> (25)
134678-17-4

>  <URL> (25)
http://www.selleckchem.com/products/Lamivudine(Epivir).html

$$$$
HEPSERA (adefovir dipivoxil).cdx
csChFnd80/01042310162D

 34 35  0  0  0  0  0  0  0  0999 V2000
    2.1544    9.0702    0.0000 C   0  0  0  0  0  0  0  0  0  0  0  0
    2.1544    7.6702    0.0000 C   0  0  0  0  0  0  0  0  0  0  0  0
    3.3668    6.9702    0.0000 N   0  0  0  0  0  0  0  0  0  0  0  0
    4.5793    7.6702    0.0000 C   0  0  0  0  0  0  0  0  0  0  0  0
    4.5793    9.0702    0.0000 N   0  0  0  0  0  0  0  0  0  0  0  0
    3.3668    9.7702    0.0000 C   0  0  0  0  0  0  0  0  0  0  0  0
    0.8229    9.5028    0.0000 N   0  0  0  0  0  0  0  0  0  0  0  0
    0.0000    8.3702    0.0000 C   0  0  0  0  0  0  0  0  0  0  0  0
    0.8229    7.2376    0.0000 N   0  0  0  0  0  0  0  0  0  0  0  0
    0.8229    5.8376    0.0000 C   0  0  0  0  0  0  0  0  0  0  0  0
    2.0353    5.1376    0.0000 C   0  0  0  0  0  0  0  0  0  0  0  0
    3.2436    5.8351    0.0000 O   0  0  0  0  0  0  0  0  0  0  0  0
    4.4518    5.1376    0.0000 C   0  0  0  0  0  0  0  0  0  0  0  0
    5.6600    5.8351    0.0000 P   0  0  0  0  0  0  0  0  0  0  0  0
    7.0600    5.8351    0.0000 O   0  0  0  0  0  0  0  0  0  0  0  0
    3.3668   11.1653    0.0000 N   0  0  0  0  0  0  0  0  0  0  0  0
    5.6600    7.2351    0.0000 O   0  0  0  0  0  0  0  0  0  0  0  0
    5.6600    4.4351    0.0000 O   0  0  0  0  0  0  0  0  0  0  0  0
    8.2725    6.5351    0.0000 C   0  0  0  0  0  0  0  0  0  0  0  0
    9.4849    5.8351    0.0000 O   0  0  0  0  0  0  0  0  0  0  0  0
   10.8849    5.8351    0.0000 C   0  0  0  0  0  0  0  0  0  0  0  0
   11.8748    4.8452    0.0000 C   0  0  0  0  0  0  0  0  0  0  0  0
   11.5137    3.4976    0.0000 C   0  0  0  0  0  0  0  0  0  0  0  0
   13.0873    5.5452    0.0000 C   0  0  0  0  0  0  0  0  0  0  0  0
   12.8648    3.8552    0.0000 C   0  0  0  0  0  0  0  0  0  0  0  0
   11.4188    7.1241    0.0000 O   0  0  0  0  0  0  0  0  0  0  0  0
    5.6600    3.0351    0.0000 C   0  0  0  0  0  0  0  0  0  0  0  0
    6.8682    2.3376    0.0000 O   0  0  0  0  0  0  0  0  0  0  0  0
    8.2682    2.3376    0.0000 C   0  0  0  0  0  0  0  0  0  0  0  0
    9.2582    1.3476    0.0000 C   0  0  0  0  0  0  0  0  0  0  0  0
    8.8021    3.6265    0.0000 O   0  0  0  0  0  0  0  0  0  0  0  0
   10.6058    1.7087    0.0000 C   0  0  0  0  0  0  0  0  0  0  0  0
    8.8971    0.0000    0.0000 C   0  0  0  0  0  0  0  0  0  0  0  0
   10.2481    0.3577    0.0000 C   0  0  0  0  0  0  0  0  0  0  0  0
  1  2  2  0  0  0  0
  2  3  1  0  0  0  0
  3  4  2  0  0  0  0
  4  5  1  0  0  0  0
  5  6  2  0  0  0  0
  6  1  1  0  0  0  0
  1  7  1  0  0  0  0
  7  8  2  0  0  0  0
  8  9  1  0  0  0  0
  9  2  1  0  0  0  0
  9 10  1  0  0  0  0
 10 11  1  0  0  0  0
 11 12  1  0  0  0  0
 12 13  1  0  0  0  0
 13 14  1  0  0  0  0
 14 15  1  0  0  0  0
  6 16  1  0  0  0  0
 14 17  2  0  0  0  0
 14 18  1  0  0  0  0
 15 19  1  0  0  0  0
 19 20  1  0  0  0  0
 20 21  1  0  0  0  0
 21 22  1  0  0  0  0
 22 23  1  0  0  0  0
 22 24  1  0  0  0  0
 22 25  1  0  0  0  0
 21 26  2  0  0  0  0
 18 27  1  0  0  0  0
 27 28  1  0  0  0  0
 28 29  1  0  0  0  0
 29 30  1  0  0  0  0
 29 31  2  0  0  0  0
 30 32  1  0  0  0  0
 30 33  1  0  0  0  0
 30 34  1  0  0  0  0
M  END
>  <Mol_ID> (26)
431

>  <Formula> (26)
C20H32N5O8P

>  <MolWeight> (26)
501.470541

>  <Cat> (26)
S1718

>  <Name> (26)
Adefovir Dipivoxil (Preveon, Hepsera)

>  <Synonyms> (26)
Bis-POM PMEA, Preveon, Hepsera 

>  <Target> (26)
Reverse Transcriptase

>  <Form> (26)
Free Base

>  <CAS> (26)
142340-99-6

>  <URL> (26)
http://www.selleckchem.com/products/Adefovir-Dipivoxil(Preveon).html

$$$$
HIVID (zalcitabine).cdx
csChFnd80/01042310162D

 15 16  0  0  0  0  0  0  0  0999 V2000
    2.4032    3.1207    0.0000 C   0  0  2  0  0  0  0  0  0  0  0  0
    2.4032    1.7207    0.0000 C   0  0  0  0  0  0  0  0  0  0  0  0
    3.7347    1.2880    0.0000 C   0  0  0  0  0  0  0  0  0  0  0  0
    4.5576    2.4207    0.0000 C   0  0  1  0  0  0  0  0  0  0  0  0
    3.7347    3.5533    0.0000 O   0  0  0  0  0  0  0  0  0  0  0  0
    1.2745    3.9407    0.0000 C   0  0  0  0  0  0  0  0  0  0  0  0
    5.9527    2.4207    0.0000 N   0  0  0  0  0  0  0  0  0  0  0  0
    0.0000    3.3733    0.0000 O   0  0  0  0  0  0  0  0  0  0  0  0
    6.6527    1.2082    0.0000 C   0  0  0  0  0  0  0  0  0  0  0  0
    8.0527    1.2082    0.0000 N   0  0  0  0  0  0  0  0  0  0  0  0
    8.7527    2.4207    0.0000 C   0  0  0  0  0  0  0  0  0  0  0  0
    8.0527    3.6331    0.0000 C   0  0  0  0  0  0  0  0  0  0  0  0
    6.6527    3.6331    0.0000 C   0  0  0  0  0  0  0  0  0  0  0  0
    5.9552    0.0000    0.0000 O   0  0  0  0  0  0  0  0  0  0  0  0
   10.1479    2.4207    0.0000 N   0  0  0  0  0  0  0  0  0  0  0  0
  1  2  1  0  0  0  0
  3  4  1  0  0  0  0
  4  5  1  0  0  0  0
  5  1  1  0  0  0  0
  1  6  1  1  0  0  0
  4  7  1  1  0  0  0
  6  8  1  0  0  0  0
  7  9  1  0  0  0  0
  9 10  1  0  0  0  0
 10 11  2  0  0  0  0
 11 12  1  0  0  0  0
 12 13  2  0  0  0  0
 13  7  1  0  0  0  0
  9 14  2  0  0  0  0
 11 15  1  0  0  0  0
  2  3  1  0  0  0  0
M  END
>  <Mol_ID> (27)
432

>  <Formula> (27)
C9H13N3O3

>  <MolWeight> (27)
211.21782

>  <Cat> (27)
S1719

>  <Name> (27)
Zalcitabine

>  <Synonyms> (27)
Hivid, Dideoxycytidine 

>  <Target> (27)
Reverse Transcriptase

>  <Form> (27)
Free Base

>  <CAS> (27)
7481-89-2

>  <URL> (27)
http://www.selleckchem.com/products/Zalcitabine.html

$$$$
IMURAN (azathioprine).cdx
csChFnd80/01042310162D

 19 21  0  0  0  0  0  0  0  0999 V2000
    2.2157    2.1000    0.0000 N   0  0  0  0  0  0  0  0  0  0  0  0
    2.2157    0.7000    0.0000 C   0  0  0  0  0  0  0  0  0  0  0  0
    3.4282    0.0000    0.0000 N   0  0  0  0  0  0  0  0  0  0  0  0
    4.6406    0.7000    0.0000 C   0  0  0  0  0  0  0  0  0  0  0  0
    4.6406    2.1000    0.0000 C   0  0  0  0  0  0  0  0  0  0  0  0
    3.4282    2.8000    0.0000 C   0  0  0  0  0  0  0  0  0  0  0  0
    5.9721    0.2674    0.0000 N   0  0  0  0  0  0  0  0  0  0  0  0
    6.7950    1.4000    0.0000 C   0  0  0  0  0  0  0  0  0  0  0  0
    5.9721    2.5326    0.0000 N   0  0  0  0  0  0  0  0  0  0  0  0
    3.4282    4.1951    0.0000 S   0  0  0  0  0  0  0  0  0  0  0  0
    2.2157    4.8951    0.0000 C   0  0  0  0  0  0  0  0  0  0  0  0
    2.0694    6.2875    0.0000 C   0  0  0  0  0  0  0  0  0  0  0  0
    0.7000    6.5785    0.0000 N   0  0  0  0  0  0  0  0  0  0  0  0
    0.0000    5.3661    0.0000 C   0  0  0  0  0  0  0  0  0  0  0  0
    0.9368    4.3257    0.0000 N   0  0  0  0  0  0  0  0  0  0  0  0
    3.1062    7.2210    0.0000 N   0  3  0  0  0  0  0  0  0  0  0  0
    4.4377    6.7884    0.0000 O   0  0  0  0  0  0  0  0  0  0  0  0
    2.8151    8.5904    0.0000 O   0  5  0  0  0  0  0  0  0  0  0  0
    0.6467    2.9611    0.0000 C   0  0  0  0  0  0  0  0  0  0  0  0
  1  2  2  0  0  0  0
  2  3  1  0  0  0  0
  3  4  2  0  0  0  0
  4  5  1  0  0  0  0
  5  6  2  0  0  0  0
  6  1  1  0  0  0  0
  4  7  1  0  0  0  0
  7  8  2  0  0  0  0
  8  9  1  0  0  0  0
  9  5  1  0  0  0  0
  6 10  1  0  0  0  0
 10 11  1  0  0  0  0
 11 12  2  0  0  0  0
 12 13  1  0  0  0  0
 13 14  2  0  0  0  0
 14 15  1  0  0  0  0
 15 11  1  0  0  0  0
 12 16  1  0  0  0  0
 15 19  1  0  0  0  0
 16 17  2  0  0  0  0
 16 18  1  0  0  0  0
M  END
>  <Mol_ID> (28)
433

>  <Formula> (28)
C9H7N7O2S

>  <MolWeight> (28)
277.26258

>  <Cat> (28)
S1721

>  <Name> (28)
Azathioprine (Azasan, Imuran)

>  <Synonyms> (28)
Azasan, Imuran, Azamun, BW-57-322, NSC-39084 

>  <Target> (28)
Rho

>  <Form> (28)
Free Base

>  <CAS> (28)
446-86-6

>  <URL> (28)
http://www.selleckchem.com/products/Azathioprine(Azasan).html

$$$$
NEVIRAPINE (nevirapine).cdx
csChFnd80/01042310162D

 20 23  0  0  0  0  0  0  0  0999 V2000
    3.9370    2.6124    0.0000 N   0  0  0  0  0  0  0  0  0  0  0  0
    3.9370    1.2124    0.0000 C   0  0  0  0  0  0  0  0  0  0  0  0
    5.1983    3.2199    0.0000 C   0  0  0  0  0  0  0  0  0  0  0  0
    5.5098    4.5848    0.0000 C   0  0  0  0  0  0  0  0  0  0  0  0
    4.6370    5.6793    0.0000 N   0  0  0  0  0  0  0  0  0  0  0  0
    3.2370    5.6793    0.0000 C   0  0  0  0  0  0  0  0  0  0  0  0
    2.3641    4.5848    0.0000 C   0  0  0  0  0  0  0  0  0  0  0  0
    2.6756    3.2199    0.0000 C   0  0  0  0  0  0  0  0  0  0  0  0
    6.2246    2.2676    0.0000 N   0  0  0  0  0  0  0  0  0  0  0  0
    7.5624    2.6803    0.0000 C   0  0  0  0  0  0  0  0  0  0  0  0
    7.8739    4.0452    0.0000 C   0  0  0  0  0  0  0  0  0  0  0  0
    6.8476    4.9974    0.0000 C   0  0  0  0  0  0  0  0  0  0  0  0
    1.0263    4.9974    0.0000 C   0  0  0  0  0  0  0  0  0  0  0  0
    0.0000    4.0452    0.0000 C   0  0  0  0  0  0  0  0  0  0  0  0
    0.3115    2.6803    0.0000 C   0  0  0  0  0  0  0  0  0  0  0  0
    1.6493    2.2676    0.0000 N   0  0  0  0  0  0  0  0  0  0  0  0
    7.1581    6.3576    0.0000 C   0  0  0  0  0  0  0  0  0  0  0  0
    2.6316    6.9363    0.0000 O   0  0  0  0  0  0  0  0  0  0  0  0
    3.2370    0.0000    0.0000 C   0  0  0  0  0  0  0  0  0  0  0  0
    4.6370    0.0000    0.0000 C   0  0  0  0  0  0  0  0  0  0  0  0
  1  2  1  0  0  0  0
  1  3  1  0  0  0  0
  3  4  2  0  0  0  0
  4  5  1  0  0  0  0
  5  6  1  0  0  0  0
  6  7  1  0  0  0  0
  7  8  2  0  0  0  0
  8  1  1  0  0  0  0
  3  9  1  0  0  0  0
  9 10  2  0  0  0  0
 10 11  1  0  0  0  0
 11 12  2  0  0  0  0
 12  4  1  0  0  0  0
  7 13  1  0  0  0  0
 13 14  2  0  0  0  0
 14 15  1  0  0  0  0
 15 16  2  0  0  0  0
 16  8  1  0  0  0  0
 12 17  1  0  0  0  0
  6 18  2  0  0  0  0
  2 19  1  0  0  0  0
 19 20  1  0  0  0  0
 20  2  1  0  0  0  0
M  END
>  <Mol_ID> (29)
445

>  <Formula> (29)
C15H14N4O

>  <MolWeight> (29)
266.29786

>  <Cat> (29)
S1742

>  <Name> (29)
Nevirapine (Viramune)

>  <Synonyms> (29)
Viramune, BI-RG 587

>  <Target> (29)
Reverse Transcriptase

>  <Form> (29)
Free Base

>  <CAS> (29)
129618-40-2

>  <URL> (29)
http://www.selleckchem.com/products/Nevirapine(Viramune).html

$$$$
THIOGUANINE (thioguanine).cdx
csChFnd80/01042310162D

 11 12  0  0  0  0  0  0  0  0999 V2000
    1.2082    2.1000    0.0000 N   0  0  0  0  0  0  0  0  0  0  0  0
    1.2082    0.7000    0.0000 C   0  0  0  0  0  0  0  0  0  0  0  0
    2.4207    0.0000    0.0000 N   0  0  0  0  0  0  0  0  0  0  0  0
    3.6331    0.7000    0.0000 C   0  0  0  0  0  0  0  0  0  0  0  0
    3.6331    2.1000    0.0000 C   0  0  0  0  0  0  0  0  0  0  0  0
    2.4207    2.8000    0.0000 C   0  0  0  0  0  0  0  0  0  0  0  0
    4.9646    0.2674    0.0000 N   0  0  0  0  0  0  0  0  0  0  0  0
    5.7875    1.4000    0.0000 C   0  0  0  0  0  0  0  0  0  0  0  0
    4.9646    2.5326    0.0000 N   0  0  0  0  0  0  0  0  0  0  0  0
    0.0000    0.0024    0.0000 N   0  0  0  0  0  0  0  0  0  0  0  0
    2.4207    4.1951    0.0000 S   0  0  0  0  0  0  0  0  0  0  0  0
  1  2  2  0  0  0  0
  2  3  1  0  0  0  0
  3  4  1  0  0  0  0
  4  5  2  0  0  0  0
  5  6  1  0  0  0  0
  6  1  1  0  0  0  0
  4  7  1  0  0  0  0
  7  8  2  0  0  0  0
  8  9  1  0  0  0  0
  9  5  1  0  0  0  0
  2 10  1  0  0  0  0
  6 11  2  0  0  0  0
M  END
>  <Mol_ID> (30)
455

>  <Formula> (30)
C5H5N5S

>  <MolWeight> (30)
167.1917

>  <Cat> (30)
S1774

>  <Name> (30)
Thioguanine

>  <Synonyms> (30)
6-Thioguanine

>  <Target> (30)
Others

>  <Form> (30)
Free Base

>  <CAS> (30)
154-42-7

>  <URL> (30)
http://www.selleckchem.com/products/Thioguanine.html

$$$$
TRIFLURIDINE (trifluridine).cdx
csChFnd80/01042310162D

 20 21  0  0  0  0  0  0  0  0999 V2000
    1.2082    6.7782    0.0000 N   0  0  0  0  0  0  0  0  0  0  0  0
    1.2082    5.3782    0.0000 C   0  0  0  0  0  0  0  0  0  0  0  0
    2.4207    4.6782    0.0000 N   0  0  0  0  0  0  0  0  0  0  0  0
    3.6331    5.3782    0.0000 C   0  0  0  0  0  0  0  0  0  0  0  0
    3.6331    6.7782    0.0000 C   0  0  0  0  0  0  0  0  0  0  0  0
    2.4207    7.4782    0.0000 C   0  0  0  0  0  0  0  0  0  0  0  0
    0.0000    4.6806    0.0000 O   0  0  0  0  0  0  0  0  0  0  0  0
    2.4207    8.8734    0.0000 O   0  0  0  0  0  0  0  0  0  0  0  0
    4.8413    7.4758    0.0000 C   0  0  0  0  0  0  0  0  0  0  0  0
    6.0496    6.7782    0.0000 F   0  0  0  0  0  0  0  0  0  0  0  0
    4.8413    8.8709    0.0000 F   0  0  0  0  0  0  0  0  0  0  0  0
    6.0538    8.1758    0.0000 F   0  0  0  0  0  0  0  0  0  0  0  0
    2.4207    3.2831    0.0000 C   0  0  1  0  0  0  0  0  0  0  0  0
    1.2880    2.4602    0.0000 C   0  0  0  0  0  0  0  0  0  0  0  0
    1.7207    1.1287    0.0000 C   0  0  1  0  0  0  0  0  0  0  0  0
    3.1207    1.1287    0.0000 C   0  0  2  0  0  0  0  0  0  0  0  0
    3.5533    2.4602    0.0000 O   0  0  0  0  0  0  0  0  0  0  0  0
    0.9006    0.0000    0.0000 O   0  0  0  0  0  0  0  0  0  0  0  0
    3.9407    0.0000    0.0000 C   0  0  0  0  0  0  0  0  0  0  0  0
    5.3282    0.1458    0.0000 O   0  0  0  0  0  0  0  0  0  0  0  0
  1  2  1  0  0  0  0
  2  3  1  0  0  0  0
  3  4  1  0  0  0  0
  4  5  2  0  0  0  0
  5  6  1  0  0  0  0
  6  1  1  0  0  0  0
  2  7  2  0  0  0  0
  6  8  2  0  0  0  0
  5  9  1  0  0  0  0
  9 10  1  0  0  0  0
  9 11  1  0  0  0  0
  9 12  1  0  0  0  0
 13 14  1  0  0  0  0
 14 15  1  0  0  0  0
 15 16  1  0  0  0  0
 16 17  1  0  0  0  0
 17 13  1  0  0  0  0
 15 18  1  1  0  0  0
 16 19  1  6  0  0  0
 19 20  1  0  0  0  0
 13  3  1  6  0  0  0
M  END
>  <Mol_ID> (31)
458

>  <Formula> (31)
C10H11F3N2O5

>  <MolWeight> (31)
296.1999496

>  <Cat> (31)
S1778

>  <Name> (31)
Trifluridine (Viroptic)

>  <Synonyms> (31)
Viroptic, Trifluorothymidine

>  <Target> (31)
NULL

>  <Form> (31)
Free Base

>  <CAS> (31)
70-00-8

>  <URL> (31)
http://www.selleckchem.com/products/Trifluridine(Viroptic).html

$$$$
VIDAZA (azacitidine).cdx
csChFnd80/01042310162D

 17 18  0  0  0  0  0  0  0  0999 V2000
    3.7390    7.6619    0.0000 C   0  0  2  0  0  0  0  0  0  0  0  0
    2.3867    7.2996    0.0000 C   0  0  2  0  0  0  0  0  0  0  0  0
    2.3134    5.9015    0.0000 O   0  0  0  0  0  0  0  0  0  0  0  0
    3.6204    5.3998    0.0000 C   0  0  2  0  0  0  0  0  0  0  0  0
    4.5015    6.4878    0.0000 C   0  0  2  0  0  0  0  0  0  0  0  0
    4.2390    8.9644    0.0000 O   0  0  0  0  0  0  0  0  0  0  0  0
    5.8947    6.4148    0.0000 O   0  0  0  0  0  0  0  0  0  0  0  0
    1.3025    8.1776    0.0000 C   0  0  0  0  0  0  0  0  0  0  0  0
    3.9815    4.0522    0.0000 N   0  0  0  0  0  0  0  0  0  0  0  0
    0.0000    7.6776    0.0000 O   0  0  0  0  0  0  0  0  0  0  0  0
    2.9916    3.0622    0.0000 C   0  0  0  0  0  0  0  0  0  0  0  0
    3.3539    1.7099    0.0000 N   0  0  0  0  0  0  0  0  0  0  0  0
    4.7062    1.3476    0.0000 C   0  0  0  0  0  0  0  0  0  0  0  0
    5.6962    2.3376    0.0000 N   0  0  0  0  0  0  0  0  0  0  0  0
    5.3338    3.6898    0.0000 C   0  0  0  0  0  0  0  0  0  0  0  0
    1.6440    3.4233    0.0000 O   0  0  0  0  0  0  0  0  0  0  0  0
    5.0673    0.0000    0.0000 N   0  0  0  0  0  0  0  0  0  0  0  0
  1  2  1  0  0  0  0
  2  3  1  0  0  0  0
  3  4  1  0  0  0  0
  4  5  1  0  0  0  0
  5  1  1  0  0  0  0
  1  6  1  1  0  0  0
  5  7  1  1  0  0  0
  2  8  1  6  0  0  0
  4  9  1  6  0  0  0
  8 10  1  0  0  0  0
  9 11  1  0  0  0  0
 11 12  1  0  0  0  0
 12 13  2  0  0  0  0
 13 14  1  0  0  0  0
 14 15  2  0  0  0  0
 15  9  1  0  0  0  0
 11 16  2  0  0  0  0
 13 17  1  0  0  0  0
M  END
>  <Mol_ID> (32)
459

>  <Formula> (32)
C8H12N4O5

>  <MolWeight> (32)
244.20468

>  <Cat> (32)
S1782

>  <Name> (32)
Azacitidine (Vidaza)

>  <Synonyms> (32)
5-azacytidine, Mylosar, Ladakamycin 

>  <Target> (32)
DNA/RNA Synthesis

>  <Form> (32)
Free Base

>  <CAS> (32)
320-67-2

>  <URL> (32)
http://www.selleckchem.com/products/Azacitidine(Vidaza).html

$$$$
VIRA-A (vidarabine).cdx
csChFnd80/01042310162D

 19 21  0  0  0  0  0  0  0  0999 V2000
    0.0000    3.4951    0.0000 C   0  0  0  0  0  0  0  0  0  0  0  0
    0.0000    2.0951    0.0000 N   0  0  0  0  0  0  0  0  0  0  0  0
    1.2124    1.3951    0.0000 C   0  0  0  0  0  0  0  0  0  0  0  0
    2.4249    2.0951    0.0000 C   0  0  0  0  0  0  0  0  0  0  0  0
    2.4249    3.4951    0.0000 C   0  0  0  0  0  0  0  0  0  0  0  0
    1.2124    4.1951    0.0000 N   0  0  0  0  0  0  0  0  0  0  0  0
    3.7564    1.6625    0.0000 N   0  0  0  0  0  0  0  0  0  0  0  0
    4.5793    2.7951    0.0000 C   0  0  0  0  0  0  0  0  0  0  0  0
    3.7564    3.9278    0.0000 N   0  0  0  0  0  0  0  0  0  0  0  0
    1.2124    0.0000    0.0000 N   0  0  0  0  0  0  0  0  0  0  0  0
    4.1875    5.2546    0.0000 C   0  0  1  0  0  0  0  0  0  0  0  0
    5.5190    5.6872    0.0000 C   0  0  2  0  0  0  0  0  0  0  0  0
    5.5190    7.0872    0.0000 C   0  0  1  0  0  0  0  0  0  0  0  0
    4.1875    7.5199    0.0000 C   0  0  2  0  0  0  0  0  0  0  0  0
    3.3646    6.3872    0.0000 O   0  0  0  0  0  0  0  0  0  0  0  0
    3.7564    8.8467    0.0000 C   0  0  0  0  0  0  0  0  0  0  0  0
    6.6476    4.8672    0.0000 O   0  0  0  0  0  0  0  0  0  0  0  0
    6.6476    7.9073    0.0000 O   0  0  0  0  0  0  0  0  0  0  0  0
    2.3917    9.1368    0.0000 O   0  0  0  0  0  0  0  0  0  0  0  0
  1  2  2  0  0  0  0
  2  3  1  0  0  0  0
  3  4  2  0  0  0  0
  4  5  1  0  0  0  0
  5  6  2  0  0  0  0
  6  1  1  0  0  0  0
  4  7  1  0  0  0  0
  7  8  2  0  0  0  0
  8  9  1  0  0  0  0
  9  5  1  0  0  0  0
  3 10  1  0  0  0  0
 11  9  1  6  0  0  0
 11 12  1  0  0  0  0
 12 13  1  0  0  0  0
 13 14  1  0  0  0  0
 14 15  1  0  0  0  0
 15 11  1  0  0  0  0
 14 16  1  6  0  0  0
 12 17  1  6  0  0  0
 13 18  1  1  0  0  0
 16 19  1  0  0  0  0
M  END
>  <Mol_ID> (33)
460

>  <Formula> (33)
C10H13N5O4

>  <MolWeight> (33)
267.24132

>  <Cat> (33)
S1784

>  <Name> (33)
Vidarabine (Vira-A)

>  <Synonyms> (33)
Vira-A

>  <Target> (33)
5-alpha Reductase 

>  <Form> (33)
Free Base

>  <CAS> (33)
5536-17-4

>  <URL> (33)
http://www.selleckchem.com/products/Vidarabine(Vira-A).html

$$$$
Acyclovir.cdx
csChFnd80/01042310162D

 16 17  0  0  0  0  0  0  0  0999 V2000
    0.0000    2.8188    0.0000 O   0  0  0  0  0  0  0  0  0  0  0  0
    1.2124    3.5188    0.0000 C   0  0  0  0  0  0  0  0  0  0  0  0
    2.4207    2.8213    0.0000 C   0  0  0  0  0  0  0  0  0  0  0  0
    3.6289    3.5188    0.0000 O   0  0  0  0  0  0  0  0  0  0  0  0
    4.8371    2.8213    0.0000 C   0  0  0  0  0  0  0  0  0  0  0  0
    6.0453    3.5188    0.0000 N   0  0  0  0  0  0  0  0  0  0  0  0
    7.3243    2.9494    0.0000 C   0  0  0  0  0  0  0  0  0  0  0  0
    8.2611    3.9898    0.0000 C   0  0  0  0  0  0  0  0  0  0  0  0
    7.5611    5.2023    0.0000 N   0  0  0  0  0  0  0  0  0  0  0  0
    6.1917    4.9112    0.0000 C   0  0  0  0  0  0  0  0  0  0  0  0
    7.7569    1.6179    0.0000 N   0  0  0  0  0  0  0  0  0  0  0  0
    9.1263    1.3269    0.0000 C   0  0  0  0  0  0  0  0  0  0  0  0
   10.0631    2.3673    0.0000 N   0  0  0  0  0  0  0  0  0  0  0  0
    9.6305    3.6987    0.0000 C   0  0  0  0  0  0  0  0  0  0  0  0
   10.5640    4.7355    0.0000 O   0  0  0  0  0  0  0  0  0  0  0  0
    9.5575    0.0000    0.0000 N   0  0  0  0  0  0  0  0  0  0  0  0
  1  2  1  0  0  0  0
  2  3  1  0  0  0  0
  3  4  1  0  0  0  0
  4  5  1  0  0  0  0
  5  6  1  0  0  0  0
  6  7  1  0  0  0  0
  7  8  2  0  0  0  0
  8  9  1  0  0  0  0
  9 10  2  0  0  0  0
 10  6  1  0  0  0  0
  7 11  1  0  0  0  0
 11 12  2  0  0  0  0
 12 13  1  0  0  0  0
 13 14  1  0  0  0  0
 14  8  1  0  0  0  0
 14 15  2  0  0  0  0
 12 16  1  0  0  0  0
M  END
>  <Mol_ID> (34)
469

>  <Formula> (34)
C8H11N5O3

>  <MolWeight> (34)
225.20464

>  <Cat> (34)
S1807

>  <Name> (34)
Acyclovir (Aciclovir)

>  <Synonyms> (34)
Aciclovir, Acycloguanosine, Zovirax 

>  <Target> (34)
Antifection

>  <Form> (34)
Free Base

>  <CAS> (34)
59277-89-3 

>  <URL> (34)
http://www.selleckchem.com/products/Acyclovir(Aciclovir).html

$$$$
Methylthiouracil.cdx
csChFnd80/01042310162D

  9  9  0  0  0  0  0  0  0  0999 V2000
    1.4000    2.4249    0.0000 C   0  0  0  0  0  0  0  0  0  0  0  0
    2.1000    3.6373    0.0000 N   0  0  0  0  0  0  0  0  0  0  0  0
    3.5000    3.6373    0.0000 C   0  0  0  0  0  0  0  0  0  0  0  0
    4.2000    2.4249    0.0000 C   0  0  0  0  0  0  0  0  0  0  0  0
    3.5000    1.2124    0.0000 C   0  0  0  0  0  0  0  0  0  0  0  0
    2.1000    1.2124    0.0000 N   0  0  0  0  0  0  0  0  0  0  0  0
    4.2000    4.8497    0.0000 O   0  0  0  0  0  0  0  0  0  0  0  0
    0.0000    2.4249    0.0000 S   0  0  0  0  0  0  0  0  0  0  0  0
    4.2000    0.0000    0.0000 C   0  0  0  0  0  0  0  0  0  0  0  0
  1  2  1  0  0  0  0
  2  3  1  0  0  0  0
  3  4  1  0  0  0  0
  4  5  2  0  0  0  0
  5  6  1  0  0  0  0
  1  6  1  0  0  0  0
  3  7  2  0  0  0  0
  1  8  2  0  0  0  0
  5  9  1  0  0  0  0
M  END
>  <Mol_ID> (35)
481

>  <Formula> (35)
C5H6N2OS

>  <MolWeight> (35)
142.17894

>  <Cat> (35)
S3138

>  <Name> (35)
Methylthiouracil

>  <Synonyms> (35)
N/A

>  <Target> (35)
Others

>  <Form> (35)
Free Base

>  <CAS> (35)
20547

>  <URL> (35)
http://www.selleckchem.com/products/methylthiouracil.html

$$$$
PROPYLTHIOURACIL (propylthiouracil).cdx
csChFnd80/01042310162D

 11 11  0  0  0  0  0  0  0  0999 V2000
    3.6247    2.1000    0.0000 C   0  0  0  0  0  0  0  0  0  0  0  0
    3.6247    0.7000    0.0000 C   0  0  0  0  0  0  0  0  0  0  0  0
    4.8371    0.0000    0.0000 N   0  0  0  0  0  0  0  0  0  0  0  0
    6.0496    0.7000    0.0000 C   0  0  0  0  0  0  0  0  0  0  0  0
    6.0496    2.1000    0.0000 N   0  0  0  0  0  0  0  0  0  0  0  0
    4.8371    2.8000    0.0000 C   0  0  0  0  0  0  0  0  0  0  0  0
    2.4165    0.0024    0.0000 C   0  0  0  0  0  0  0  0  0  0  0  0
    1.2082    0.7000    0.0000 C   0  0  0  0  0  0  0  0  0  0  0  0
    0.0000    0.0024    0.0000 C   0  0  0  0  0  0  0  0  0  0  0  0
    4.8371    4.1951    0.0000 O   0  0  0  0  0  0  0  0  0  0  0  0
    7.2578    0.0024    0.0000 S   0  0  0  0  0  0  0  0  0  0  0  0
  1  2  2  0  0  0  0
  2  3  1  0  0  0  0
  3  4  1  0  0  0  0
  4  5  1  0  0  0  0
  5  6  1  0  0  0  0
  6  1  1  0  0  0  0
  2  7  1  0  0  0  0
  7  8  1  0  0  0  0
  8  9  1  0  0  0  0
  6 10  2  0  0  0  0
  4 11  2  0  0  0  0
M  END
>  <Mol_ID> (36)
495

>  <Formula> (36)
C7H10N2OS

>  <MolWeight> (36)
170.2321

>  <Cat> (36)
S1988

>  <Name> (36)
Propylthiouracil

>  <Synonyms> (36)
6-n-Propylthiouracil

>  <Target> (36)
Others

>  <Form> (36)
Free Base

>  <CAS> (36)
51-52-5

>  <URL> (36)
http://www.selleckchem.com/products/Propylthiouracil.html

$$$$
Valaciclovir hydrochloride.cdx
csChFnd80/01042310162D

 24 24  0  0  0  0  0  0  0  0999 V2000
    1.2124    6.4750    0.0000 N   0  0  0  0  0  0  0  0  0  0  0  0
    1.2124    5.0750    0.0000 C   0  0  0  0  0  0  0  0  0  0  0  0
    2.4249    4.3750    0.0000 N   0  0  0  0  0  0  0  0  0  0  0  0
    3.6373    5.0750    0.0000 C   0  0  0  0  0  0  0  0  0  0  0  0
    3.6373    6.4750    0.0000 C   0  0  0  0  0  0  0  0  0  0  0  0
    2.4249    7.1750    0.0000 C   0  0  0  0  0  0  0  0  0  0  0  0
    2.4249    8.5750    0.0000 O   0  0  0  0  0  0  0  0  0  0  0  0
    0.0000    4.3750    0.0000 N   0  0  0  0  0  0  0  0  0  0  0  0
    4.9688    4.6424    0.0000 N   0  0  0  0  0  0  0  0  0  0  0  0
    5.7917    5.7750    0.0000 C   0  0  0  0  0  0  0  0  0  0  0  0
    4.9688    6.9076    0.0000 N   0  0  0  0  0  0  0  0  0  0  0  0
    4.9688    3.2424    0.0000 C   0  0  0  0  0  0  0  0  0  0  0  0
    6.1812    2.5424    0.0000 O   0  0  0  0  0  0  0  0  0  0  0  0
    7.3937    3.2424    0.0000 C   0  0  0  0  0  0  0  0  0  0  0  0
    8.6061    2.5424    0.0000 C   0  0  0  0  0  0  0  0  0  0  0  0
    9.8185    3.2424    0.0000 O   0  0  0  0  0  0  0  0  0  0  0  0
   11.0310    2.5424    0.0000 C   0  0  0  0  0  0  0  0  0  0  0  0
   12.2434    3.2424    0.0000 C   0  0  2  0  0  0  0  0  0  0  0  0
   13.4558    2.5424    0.0000 C   0  0  0  0  0  0  0  0  0  0  0  0
   14.6683    3.2424    0.0000 C   0  0  0  0  0  0  0  0  0  0  0  0
   11.0310    1.1424    0.0000 O   0  0  0  0  0  0  0  0  0  0  0  0
   13.4558    1.1424    0.0000 C   0  0  0  0  0  0  0  0  0  0  0  0
   12.2434    4.6424    0.0000 N   0  0  0  0  0  0  0  0  0  0  0  0
    3.0566    0.0000    0.0000 Cl  0  0  0  0  0  0  0  0  0  0  0  0
  2  3  2  0  0  0  0
  4  5  2  0  0  0  0
  6  1  1  0  0  0  0
  6  7  2  0  0  0  0
  6  5  1  0  0  0  0
  1  2  1  0  0  0  0
  3  4  1  0  0  0  0
  2  8  1  0  0  0  0
  4  9  1  0  0  0  0
  9 10  1  0  0  0  0
 10 11  2  0  0  0  0
 11  5  1  0  0  0  0
  9 12  1  0  0  0  0
 12 13  1  0  0  0  0
 13 14  1  0  0  0  0
 14 15  1  0  0  0  0
 15 16  1  0  0  0  0
 16 17  1  0  0  0  0
 17 18  1  0  0  0  0
 18 19  1  0  0  0  0
 19 20  1  0  0  0  0
 17 21  2  0  0  0  0
 19 22  1  0  0  0  0
 18 23  1  1  0  0  0
M  END
>  <Mol_ID> (37)
539

>  <Formula> (37)
C13H21ClN6O4

>  <MolWeight> (37)
360.79664

>  <Cat> (37)
S1876

>  <Name> (37)
Valaciclovir HCl

>  <Synonyms> (37)
N/A

>  <Target> (37)
Antifection

>  <Form> (37)
Hydrochloride

>  <CAS> (37)
124832-27-5 

>  <URL> (37)
http://www.selleckchem.com/products/valaciclovir-hcl.html

$$$$
3-Methyladenine.cdx
csChFnd80/01042310162D

 11 12  0  0  0  0  0  0  0  0999 V2000
    3.7564    3.9278    0.0000 N   0  0  0  0  0  0  0  0  0  0  0  0
    4.5793    2.7951    0.0000 C   0  0  0  0  0  0  0  0  0  0  0  0
    3.7564    1.6625    0.0000 N   0  0  0  0  0  0  0  0  0  0  0  0
    2.4249    2.0951    0.0000 C   0  0  0  0  0  0  0  0  0  0  0  0
    1.2124    1.3951    0.0000 N   0  0  0  0  0  0  0  0  0  0  0  0
    0.0000    2.0951    0.0000 C   0  0  0  0  0  0  0  0  0  0  0  0
    0.0000    3.4951    0.0000 N   0  0  0  0  0  0  0  0  0  0  0  0
    1.2124    4.1951    0.0000 C   0  0  0  0  0  0  0  0  0  0  0  0
    2.4249    3.4951    0.0000 C   0  0  0  0  0  0  0  0  0  0  0  0
    1.2124    5.5951    0.0000 N   0  0  0  0  0  0  0  0  0  0  0  0
    1.2124    0.0000    0.0000 C   0  0  0  0  0  0  0  0  0  0  0  0
  1  2  2  0  0  0  0
  2  3  1  0  0  0  0
  3  4  2  0  0  0  0
  4  5  1  0  0  0  0
  5  6  1  0  0  0  0
  6  7  2  0  0  0  0
  7  8  1  0  0  0  0
  8  9  2  0  0  0  0
  1  9  1  0  0  0  0
  4  9  1  0  0  0  0
  8 10  1  0  0  0  0
  5 11  1  0  0  0  0
M  END
>  <Mol_ID> (38)
561

>  <Formula> (38)
C6H7N5

>  <MolWeight> (38)
149.15328

>  <Cat> (38)
S2767

>  <Name> (38)
3-Methyladenine (3-MA)

>  <Synonyms> (38)
3-MA

>  <Target> (38)
PI3K

>  <Form> (38)
Free Base

>  <CAS> (38)
5142-23-4

>  <URL> (38)
http://www.selleckchem.com/products/3-methyladenine.html

$$$$
Kinetin.cdx
csChFnd80/01042310162D

 16 18  0  0  0  0  0  0  0  0999 V2000
    2.4249    0.7000    0.0000 C   0  0  0  0  0  0  0  0  0  0  0  0
    2.4249    2.1000    0.0000 C   0  0  0  0  0  0  0  0  0  0  0  0
    1.2124    2.8000    0.0000 C   0  0  0  0  0  0  0  0  0  0  0  0
    0.0000    2.1000    0.0000 N   0  0  0  0  0  0  0  0  0  0  0  0
    0.0000    0.7000    0.0000 C   0  0  0  0  0  0  0  0  0  0  0  0
    1.2124    0.0000    0.0000 N   0  0  0  0  0  0  0  0  0  0  0  0
    3.7564    0.2674    0.0000 N   0  0  0  0  0  0  0  0  0  0  0  0
    4.5792    1.4000    0.0000 C   0  0  0  0  0  0  0  0  0  0  0  0
    3.7564    2.5326    0.0000 N   0  0  0  0  0  0  0  0  0  0  0  0
    1.2124    4.1951    0.0000 N   0  0  0  0  0  0  0  0  0  0  0  0
    2.4249    4.8951    0.0000 C   0  0  0  0  0  0  0  0  0  0  0  0
    2.4249    6.2951    0.0000 C   0  0  0  0  0  0  0  0  0  0  0  0
    3.5575    7.1180    0.0000 O   0  0  0  0  0  0  0  0  0  0  0  0
    3.1249    8.4495    0.0000 C   0  0  0  0  0  0  0  0  0  0  0  0
    1.7249    8.4495    0.0000 C   0  0  0  0  0  0  0  0  0  0  0  0
    1.2922    7.1180    0.0000 C   0  0  0  0  0  0  0  0  0  0  0  0
  1  2  2  0  0  0  0
  2  3  1  0  0  0  0
  3  4  2  0  0  0  0
  4  5  1  0  0  0  0
  5  6  2  0  0  0  0
  6  1  1  0  0  0  0
  1  7  1  0  0  0  0
  7  8  2  0  0  0  0
  8  9  1  0  0  0  0
  9  2  1  0  0  0  0
  3 10  1  0  0  0  0
 10 11  1  0  0  0  0
 11 12  1  0  0  0  0
 12 13  1  0  0  0  0
 13 14  1  0  0  0  0
 14 15  2  0  0  0  0
 15 16  1  0  0  0  0
 16 12  2  0  0  0  0
M  END
>  <Mol_ID> (39)
735

>  <Formula> (39)
C10H9N5O

>  <MolWeight> (39)
215.21136

>  <Cat> (39)
S2316

>  <Name> (39)
Kinetin (6-Furfuryladenine)

>  <Synonyms> (39)
6-Furfuryladenine, N6-Furfuryladenine, 6-Furfurylaminopurine,Cytokinin 

>  <Target> (39)
Others

>  <Form> (39)
Free Base

>  <CAS> (39)
525-79-1

>  <URL> (39)
http://www.selleckchem.com/products/Kinetin(6-Furfuryladenine).html

$$$$
Famciclovir.cdx
csChFnd80/01042310162D

 23 24  0  0  0  0  0  0  0  0999 V2000
    1.2082    9.5253    0.0000 N   0  0  0  0  0  0  0  0  0  0  0  0
    1.2082    8.1253    0.0000 C   0  0  0  0  0  0  0  0  0  0  0  0
    2.4207    7.4253    0.0000 N   0  0  0  0  0  0  0  0  0  0  0  0
    3.6331    8.1253    0.0000 C   0  0  0  0  0  0  0  0  0  0  0  0
    3.6331    9.5253    0.0000 C   0  0  0  0  0  0  0  0  0  0  0  0
    2.4207   10.2253    0.0000 C   0  0  0  0  0  0  0  0  0  0  0  0
    4.9646    7.6927    0.0000 N   0  0  0  0  0  0  0  0  0  0  0  0
    5.7875    8.8253    0.0000 C   0  0  0  0  0  0  0  0  0  0  0  0
    4.9646    9.9580    0.0000 N   0  0  0  0  0  0  0  0  0  0  0  0
    0.0000    7.4278    0.0000 N   0  0  0  0  0  0  0  0  0  0  0  0
    4.9646    6.2927    0.0000 C   0  0  0  0  0  0  0  0  0  0  0  0
    3.7521    5.5927    0.0000 C   0  0  0  0  0  0  0  0  0  0  0  0
    3.7521    4.1927    0.0000 C   0  0  0  0  0  0  0  0  0  0  0  0
    4.9604    3.4951    0.0000 C   0  0  0  0  0  0  0  0  0  0  0  0
    2.5439    3.4951    0.0000 C   0  0  0  0  0  0  0  0  0  0  0  0
    2.5439    2.0951    0.0000 O   0  0  0  0  0  0  0  0  0  0  0  0
    4.9604    2.0951    0.0000 O   0  0  0  0  0  0  0  0  0  0  0  0
    6.1728    1.3951    0.0000 C   0  0  0  0  0  0  0  0  0  0  0  0
    7.3852    2.0951    0.0000 O   0  0  0  0  0  0  0  0  0  0  0  0
    6.1728    0.0000    0.0000 C   0  0  0  0  0  0  0  0  0  0  0  0
    1.3357    1.3976    0.0000 C   0  0  0  0  0  0  0  0  0  0  0  0
    1.3357    0.0024    0.0000 C   0  0  0  0  0  0  0  0  0  0  0  0
    0.1275    2.0951    0.0000 O   0  0  0  0  0  0  0  0  0  0  0  0
  1  2  2  0  0  0  0
  2  3  1  0  0  0  0
  3  4  2  0  0  0  0
  4  5  1  0  0  0  0
  5  6  2  0  0  0  0
  6  1  1  0  0  0  0
  4  7  1  0  0  0  0
  7  8  1  0  0  0  0
  8  9  2  0  0  0  0
  9  5  1  0  0  0  0
  2 10  1  0  0  0  0
  7 11  1  0  0  0  0
 11 12  1  0  0  0  0
 12 13  1  0  0  0  0
 13 14  1  0  0  0  0
 13 15  1  0  0  0  0
 15 16  1  0  0  0  0
 14 17  1  0  0  0  0
 17 18  1  0  0  0  0
 18 19  2  0  0  0  0
 18 20  1  0  0  0  0
 16 21  1  0  0  0  0
 21 22  1  0  0  0  0
 21 23  2  0  0  0  0
M  END
>  <Mol_ID> (40)
782

>  <Formula> (40)
C14H19N5O4

>  <MolWeight> (40)
321.33176

>  <Cat> (40)
S2467

>  <Name> (40)
Famciclovir (Famvir)

>  <Synonyms> (40)
Famvir

>  <Target> (40)
Antifection

>  <Form> (40)
Free Base

>  <CAS> (40)
104227-87-4

>  <URL> (40)
http://www.selleckchem.com/products/Famciclovir(Famvir).html

$$$$
Ribavirin.cdx
csChFnd80/01042310162D

 17 18  0  0  0  0  0  0  0  0999 V2000
    2.6550    3.6175    0.0000 O   0  0  0  0  0  0  0  0  0  0  0  0
    1.9550    2.4051    0.0000 C   0  0  1  0  0  0  0  0  0  0  0  0
    2.8917    1.3647    0.0000 C   0  0  2  0  0  0  0  0  0  0  0  0
    4.1707    1.9341    0.0000 C   0  0  2  0  0  0  0  0  0  0  0  0
    4.0244    3.3264    0.0000 C   0  0  2  0  0  0  0  0  0  0  0  0
    0.5675    2.2592    0.0000 C   0  0  0  0  0  0  0  0  0  0  0  0
    5.0612    4.2599    0.0000 N   0  0  0  0  0  0  0  0  0  0  0  0
    5.3789    1.2365    0.0000 O   0  0  0  0  0  0  0  0  0  0  0  0
    2.6017    0.0000    0.0000 O   0  0  0  0  0  0  0  0  0  0  0  0
    6.4306    3.9689    0.0000 C   0  0  0  0  0  0  0  0  0  0  0  0
    7.1306    5.1813    0.0000 N   0  0  0  0  0  0  0  0  0  0  0  0
    6.1938    6.2217    0.0000 C   0  0  0  0  0  0  0  0  0  0  0  0
    4.9148    5.6523    0.0000 N   0  0  0  0  0  0  0  0  0  0  0  0
    6.4838    7.5864    0.0000 C   0  0  0  0  0  0  0  0  0  0  0  0
    7.8107    8.0175    0.0000 N   0  0  0  0  0  0  0  0  0  0  0  0
    5.4471    8.5199    0.0000 O   0  0  0  0  0  0  0  0  0  0  0  0
    0.0000    0.9847    0.0000 O   0  0  0  0  0  0  0  0  0  0  0  0
  1  2  1  0  0  0  0
  2  3  1  0  0  0  0
  3  4  1  0  0  0  0
  4  5  1  0  0  0  0
  5  1  1  0  0  0  0
  2  6  1  1  0  0  0
  5  7  1  1  0  0  0
  4  8  1  6  0  0  0
  3  9  1  6  0  0  0
  7 10  1  0  0  0  0
 10 11  2  0  0  0  0
 11 12  1  0  0  0  0
 12 13  2  0  0  0  0
 13  7  1  0  0  0  0
 12 14  1  0  0  0  0
 14 15  1  0  0  0  0
 14 16  2  0  0  0  0
  6 17  1  0  0  0  0
M  END
>  <Mol_ID> (41)
811

>  <Formula> (41)
C8H12N4O5

>  <MolWeight> (41)
244.20468

>  <Cat> (41)
S2504

>  <Name> (41)
Ribavirin (Copegus)

>  <Synonyms> (41)
Rebetol, Ribasphere, Vilona, Virazole 

>  <Target> (41)
Antifection

>  <Form> (41)
Free Base

>  <CAS> (41)
36791-04-5

>  <URL> (41)
http://www.selleckchem.com/products/Ribavirin(Copegus).html

$$$$
Adenine hydrochloride.cdx
csChFnd80/01042310162D

 11 11  0  0  0  0  0  0  0  0999 V2000
    2.1544    3.4951    0.0000 C   0  0  0  0  0  0  0  0  0  0  0  0
    2.1544    2.0951    0.0000 C   0  0  0  0  0  0  0  0  0  0  0  0
    3.3668    1.3951    0.0000 C   0  0  0  0  0  0  0  0  0  0  0  0
    4.5793    2.0951    0.0000 N   0  0  0  0  0  0  0  0  0  0  0  0
    4.5793    3.4951    0.0000 C   0  0  0  0  0  0  0  0  0  0  0  0
    3.3668    4.1951    0.0000 N   0  0  0  0  0  0  0  0  0  0  0  0
    0.8229    3.9278    0.0000 N   0  0  0  0  0  0  0  0  0  0  0  0
    0.0000    2.7951    0.0000 C   0  0  0  0  0  0  0  0  0  0  0  0
    0.8229    1.6625    0.0000 N   0  0  0  0  0  0  0  0  0  0  0  0
    3.3668    0.0000    0.0000 N   0  0  0  0  0  0  0  0  0  0  0  0
    6.9397    1.4097    0.0000 Cl  0  0  0  0  0  0  0  0  0  0  0  0
  1  2  2  0  0  0  0
  2  3  1  0  0  0  0
  3  4  2  0  0  0  0
  4  5  1  0  0  0  0
  5  6  2  0  0  0  0
  6  1  1  0  0  0  0
  1  7  1  0  0  0  0
  7  8  1  0  0  0  0
  8  9  2  0  0  0  0
  9  2  1  0  0  0  0
  3 10  1  0  0  0  0
M  END
>  <Mol_ID> (42)
955

>  <Formula> (42)
C5H6ClN5

>  <MolWeight> (42)
171.58764

>  <Cat> (42)
S1983

>  <Name> (42)
Adenine hydrochloride

>  <Synonyms> (42)
N/A

>  <Target> (42)
DNA/RNA Synthesis

>  <Form> (42)
Hydrochloride

>  <CAS> (42)
2922-28-3 

>  <URL> (42)
http://www.selleckchem.com/products/adenine-hydrochloride.html

$$$$
Ganciclovir.cdx
csChFnd80/01042310162D

 18 19  0  0  0  0  0  0  0  0999 V2000
    1.2082    3.4495    0.0000 N   0  0  0  0  0  0  0  0  0  0  0  0
    1.2082    2.0495    0.0000 C   0  0  0  0  0  0  0  0  0  0  0  0
    2.4207    1.3495    0.0000 N   0  0  0  0  0  0  0  0  0  0  0  0
    3.6331    2.0495    0.0000 C   0  0  0  0  0  0  0  0  0  0  0  0
    3.6331    3.4495    0.0000 C   0  0  0  0  0  0  0  0  0  0  0  0
    2.4207    4.1496    0.0000 C   0  0  0  0  0  0  0  0  0  0  0  0
    4.9646    1.6169    0.0000 N   0  0  0  0  0  0  0  0  0  0  0  0
    5.7875    2.7495    0.0000 C   0  0  0  0  0  0  0  0  0  0  0  0
    4.9646    3.8822    0.0000 N   0  0  0  0  0  0  0  0  0  0  0  0
    0.0000    1.3520    0.0000 N   0  0  0  0  0  0  0  0  0  0  0  0
    5.3957    0.2901    0.0000 C   0  0  0  0  0  0  0  0  0  0  0  0
    2.4207    5.5447    0.0000 O   0  0  0  0  0  0  0  0  0  0  0  0
    6.7604    0.0000    0.0000 O   0  0  0  0  0  0  0  0  0  0  0  0
    7.6939    1.0368    0.0000 C   0  0  0  0  0  0  0  0  0  0  0  0
    7.2628    2.3636    0.0000 C   0  0  0  0  0  0  0  0  0  0  0  0
    9.0585    0.7467    0.0000 C   0  0  0  0  0  0  0  0  0  0  0  0
    8.1963    3.4004    0.0000 O   0  0  0  0  0  0  0  0  0  0  0  0
    9.9921    1.7835    0.0000 O   0  0  0  0  0  0  0  0  0  0  0  0
  1  2  1  0  0  0  0
  2  3  2  0  0  0  0
  3  4  1  0  0  0  0
  4  5  2  0  0  0  0
  5  6  1  0  0  0  0
  6  1  1  0  0  0  0
  4  7  1  0  0  0  0
  7  8  1  0  0  0  0
  8  9  2  0  0  0  0
  9  5  1  0  0  0  0
  2 10  1  0  0  0  0
  7 11  1  0  0  0  0
  6 12  2  0  0  0  0
 11 13  1  0  0  0  0
 13 14  1  0  0  0  0
 14 15  1  0  0  0  0
 14 16  1  0  0  0  0
 15 17  1  0  0  0  0
 16 18  1  0  0  0  0
M  END
>  <Mol_ID> (43)
974

>  <Formula> (43)
C9H13N5O4

>  <MolWeight> (43)
255.23062

>  <Cat> (43)
S1878

>  <Name> (43)
Ganciclovir

>  <Synonyms> (43)
Cytovene

>  <Target> (43)
Antifection

>  <Form> (43)
Free Base

>  <CAS> (43)
82410-32-0

>  <URL> (43)
http://www.selleckchem.com/products/ganciclovir.html

$$$$
Uridine.cdx
csChFnd80/01042310162D

 17 18  0  0  0  0  0  0  0  0999 V2000
    5.6315    5.0555    0.0000 C   0  0  0  0  0  0  0  0  0  0  0  0
    5.6315    3.6555    0.0000 N   0  0  0  0  0  0  0  0  0  0  0  0
    6.8440    2.9555    0.0000 C   0  0  0  0  0  0  0  0  0  0  0  0
    8.0564    3.6555    0.0000 N   0  0  0  0  0  0  0  0  0  0  0  0
    8.0564    5.0555    0.0000 C   0  0  0  0  0  0  0  0  0  0  0  0
    6.8440    5.7555    0.0000 C   0  0  0  0  0  0  0  0  0  0  0  0
    9.2646    5.7531    0.0000 O   0  0  0  0  0  0  0  0  0  0  0  0
    6.8440    1.5604    0.0000 O   0  0  0  0  0  0  0  0  0  0  0  0
    4.4233    2.9579    0.0000 C   0  0  2  0  0  0  0  0  0  0  0  0
    3.1443    3.5274    0.0000 O   0  0  0  0  0  0  0  0  0  0  0  0
    2.2075    2.4870    0.0000 C   0  0  1  0  0  0  0  0  0  0  0  0
    2.9075    1.2745    0.0000 C   0  0  2  0  0  0  0  0  0  0  0  0
    4.2769    1.5656    0.0000 C   0  0  1  0  0  0  0  0  0  0  0  0
    0.8200    2.6328    0.0000 C   0  0  0  0  0  0  0  0  0  0  0  0
    0.0000    1.5041    0.0000 O   0  0  0  0  0  0  0  0  0  0  0  0
    2.3401    0.0000    0.0000 O   0  0  0  0  0  0  0  0  0  0  0  0
    5.3137    0.6321    0.0000 O   0  0  0  0  0  0  0  0  0  0  0  0
  1  2  1  0  0  0  0
  2  3  1  0  0  0  0
  3  4  1  0  0  0  0
  4  5  1  0  0  0  0
  5  6  1  0  0  0  0
  6  1  2  0  0  0  0
  5  7  2  0  0  0  0
  3  8  2  0  0  0  0
  9  2  1  1  0  0  0
  9 10  1  0  0  0  0
 10 11  1  0  0  0  0
 11 12  1  0  0  0  0
 12 13  1  0  0  0  0
 13  9  1  0  0  0  0
 11 14  1  1  0  0  0
 14 15  1  0  0  0  0
 12 16  1  6  0  0  0
 13 17  1  6  0  0  0
M  END
>  <Mol_ID> (44)
977

>  <Formula> (44)
C9H12N2O6

>  <MolWeight> (44)
244.20138

>  <Cat> (44)
S2029

>  <Name> (44)
Uridine

>  <Synonyms> (44)
N/A

>  <Target> (44)
DNA/RNA Synthesis

>  <Form> (44)
Free Base

>  <CAS> (44)
58-96-8

>  <URL> (44)
http://www.selleckchem.com/products/uridine.html

$$$$
Zidovudine.cdx
csChFnd80/01042310162D

 19 20  0  0  0  0  0  0  0  0999 V2000
    1.2082    9.3361    0.0000 N   0  0  0  0  0  0  0  0  0  0  0  0
    1.2082    7.9361    0.0000 C   0  0  0  0  0  0  0  0  0  0  0  0
    2.4207    7.2361    0.0000 N   0  0  0  0  0  0  0  0  0  0  0  0
    3.6331    7.9361    0.0000 C   0  0  0  0  0  0  0  0  0  0  0  0
    3.6331    9.3361    0.0000 C   0  0  0  0  0  0  0  0  0  0  0  0
    2.4207   10.0361    0.0000 C   0  0  0  0  0  0  0  0  0  0  0  0
    2.4207   11.4313    0.0000 O   0  0  0  0  0  0  0  0  0  0  0  0
    4.8413   10.0337    0.0000 C   0  0  0  0  0  0  0  0  0  0  0  0
    0.0000    7.2386    0.0000 O   0  0  0  0  0  0  0  0  0  0  0  0
    2.4207    5.8410    0.0000 C   0  0  2  0  0  0  0  0  0  0  0  0
    1.2880    5.0181    0.0000 O   0  0  0  0  0  0  0  0  0  0  0  0
    1.7207    3.6866    0.0000 C   0  0  1  0  0  0  0  0  0  0  0  0
    3.1207    3.6866    0.0000 C   0  0  2  0  0  0  0  0  0  0  0  0
    3.5533    5.0181    0.0000 C   0  0  0  0  0  0  0  0  0  0  0  0
    0.9006    2.5579    0.0000 C   0  0  0  0  0  0  0  0  0  0  0  0
    1.4681    1.2834    0.0000 O   0  0  0  0  0  0  0  0  0  0  0  0
    3.9407    2.5579    0.0000 N   0  0  0  0  0  0  0  0  0  0  0  0
    3.3713    1.2790    0.0000 N   0  3  0  0  0  0  0  0  0  0  0  0
    2.8018    0.0000    0.0000 N   0  5  0  0  0  0  0  0  0  0  0  0
  1  2  1  0  0  0  0
  2  3  1  0  0  0  0
  3  4  1  0  0  0  0
  4  5  2  0  0  0  0
  5  6  1  0  0  0  0
  6  1  1  0  0  0  0
  6  7  2  0  0  0  0
  5  8  1  0  0  0  0
  2  9  2  0  0  0  0
 10  3  1  1  0  0  0
 10 11  1  0  0  0  0
 11 12  1  0  0  0  0
 12 13  1  0  0  0  0
 13 14  1  0  0  0  0
 14 10  1  0  0  0  0
 12 15  1  1  0  0  0
 15 16  1  0  0  0  0
 13 17  1  6  0  0  0
 17 18  2  0  0  0  0
 18 19  2  0  0  0  0
M  END
>  <Mol_ID> (45)
994

>  <Formula> (45)
C10H13N5O4

>  <MolWeight> (45)
267.24132

>  <Cat> (45)
S2579

>  <Name> (45)
Zidovudine (Retrovir)

>  <Synonyms> (45)
azidothymidine

>  <Target> (45)
Reverse Transcriptase

>  <Form> (45)
Free Base

>  <CAS> (45)
30516-87-1

>  <URL> (45)
http://www.selleckchem.com/products/zidovudine-retrovir.html

$$$$
Cytidine.cdx
csChFnd80/01042310162D

 17 18  0  0  0  0  0  0  0  0999 V2000
    5.3789    5.0555    0.0000 C   0  0  0  0  0  0  0  0  0  0  0  0
    5.3789    3.6555    0.0000 N   0  0  0  0  0  0  0  0  0  0  0  0
    6.5914    2.9555    0.0000 C   0  0  0  0  0  0  0  0  0  0  0  0
    7.8038    3.6555    0.0000 C   0  0  0  0  0  0  0  0  0  0  0  0
    7.8038    5.0555    0.0000 C   0  0  0  0  0  0  0  0  0  0  0  0
    6.5914    5.7555    0.0000 N   0  0  0  0  0  0  0  0  0  0  0  0
    4.1707    5.7531    0.0000 O   0  0  0  0  0  0  0  0  0  0  0  0
    9.0120    5.7531    0.0000 N   0  0  0  0  0  0  0  0  0  0  0  0
    4.1707    2.9579    0.0000 C   0  0  2  0  0  0  0  0  0  0  0  0
    2.8917    3.5274    0.0000 O   0  0  0  0  0  0  0  0  0  0  0  0
    1.9550    2.4870    0.0000 C   0  0  1  0  0  0  0  0  0  0  0  0
    2.6550    1.2745    0.0000 C   0  0  2  0  0  0  0  0  0  0  0  0
    4.0244    1.5656    0.0000 C   0  0  1  0  0  0  0  0  0  0  0  0
    0.5675    2.6328    0.0000 C   0  0  0  0  0  0  0  0  0  0  0  0
    2.0875    0.0000    0.0000 O   0  0  0  0  0  0  0  0  0  0  0  0
    5.0612    0.6321    0.0000 O   0  0  0  0  0  0  0  0  0  0  0  0
    0.0000    3.9073    0.0000 O   0  0  0  0  0  0  0  0  0  0  0  0
  1  2  1  0  0  0  0
  2  3  1  0  0  0  0
  3  4  2  0  0  0  0
  4  5  1  0  0  0  0
  5  6  2  0  0  0  0
  6  1  1  0  0  0  0
  1  7  2  0  0  0  0
  5  8  1  0  0  0  0
  9  2  1  1  0  0  0
  9 10  1  0  0  0  0
 10 11  1  0  0  0  0
 11 12  1  0  0  0  0
 12 13  1  0  0  0  0
 13  9  1  0  0  0  0
 11 14  1  1  0  0  0
 12 15  1  6  0  0  0
 13 16  1  6  0  0  0
 14 17  1  0  0  0  0
M  END
>  <Mol_ID> (46)
1009

>  <Formula> (46)
C9H13N3O5

>  <MolWeight> (46)
243.21662

>  <Cat> (46)
S2053

>  <Name> (46)
Cytidine

>  <Synonyms> (46)
N/A

>  <Target> (46)
Others

>  <Form> (46)
Free Base

>  <CAS> (46)
65-46-3

>  <URL> (46)
http://www.selleckchem.com/products/cytidine.html

$$$$
Doxifluridine.cdx
csChFnd80/01042310162D

 17 18  0  0  0  0  0  0  0  0999 V2000
    1.2082    3.4951    0.0000 N   0  0  0  0  0  0  0  0  0  0  0  0
    1.2082    2.0951    0.0000 C   0  0  0  0  0  0  0  0  0  0  0  0
    2.4207    1.3951    0.0000 C   0  0  0  0  0  0  0  0  0  0  0  0
    3.6331    2.0951    0.0000 C   0  0  0  0  0  0  0  0  0  0  0  0
    3.6331    3.4951    0.0000 N   0  0  0  0  0  0  0  0  0  0  0  0
    2.4207    4.1951    0.0000 C   0  0  0  0  0  0  0  0  0  0  0  0
    2.4207    5.5903    0.0000 O   0  0  0  0  0  0  0  0  0  0  0  0
    0.0000    1.3976    0.0000 O   0  0  0  0  0  0  0  0  0  0  0  0
    2.4207    0.0000    0.0000 F   0  0  0  0  0  0  0  0  0  0  0  0
    4.8413    4.1927    0.0000 C   0  0  2  0  0  0  0  0  0  0  0  0
    6.1203    3.6233    0.0000 O   0  0  0  0  0  0  0  0  0  0  0  0
    7.0571    4.6637    0.0000 C   0  0  1  0  0  0  0  0  0  0  0  0
    6.3571    5.8761    0.0000 C   0  0  2  0  0  0  0  0  0  0  0  0
    4.9877    5.5850    0.0000 C   0  0  1  0  0  0  0  0  0  0  0  0
    8.4446    4.5179    0.0000 C   0  0  0  0  0  0  0  0  0  0  0  0
    3.9509    6.5186    0.0000 O   0  0  0  0  0  0  0  0  0  0  0  0
    6.9245    7.1506    0.0000 O   0  0  0  0  0  0  0  0  0  0  0  0
  1  2  1  0  0  0  0
  2  3  1  0  0  0  0
  3  4  2  0  0  0  0
  4  5  1  0  0  0  0
  5  6  1  0  0  0  0
  6  1  1  0  0  0  0
  6  7  2  0  0  0  0
  2  8  2  0  0  0  0
  3  9  1  0  0  0  0
 10  5  1  1  0  0  0
 10 11  1  0  0  0  0
 11 12  1  0  0  0  0
 12 13  1  0  0  0  0
 13 14  1  0  0  0  0
 14 10  1  0  0  0  0
 12 15  1  1  0  0  0
 14 16  1  6  0  0  0
 13 17  1  6  0  0  0
M  END
>  <Mol_ID> (47)
1010

>  <Formula> (47)
C9H11FN2O5

>  <MolWeight> (47)
246.1924432

>  <Cat> (47)
S2045

>  <Name> (47)
Doxifluridine

>  <Synonyms> (47)
N/A

>  <Target> (47)
Phosphorylase

>  <Form> (47)
Free Base

>  <CAS> (47)
436349

>  <URL> (47)
http://www.selleckchem.com/products/doxifluridine.html

$$$$
Entecavir hydrate.cdx
csChFnd80/01042310162D

 21 22  0  0  0  0  0  0  0  0999 V2000
    1.2082    6.7516    0.0000 N   0  0  0  0  0  0  0  0  0  0  0  0
    1.2082    5.3516    0.0000 C   0  0  0  0  0  0  0  0  0  0  0  0
    2.4207    4.6516    0.0000 N   0  0  0  0  0  0  0  0  0  0  0  0
    3.6331    5.3516    0.0000 C   0  0  0  0  0  0  0  0  0  0  0  0
    3.6331    6.7516    0.0000 C   0  0  0  0  0  0  0  0  0  0  0  0
    2.4207    7.4516    0.0000 C   0  0  0  0  0  0  0  0  0  0  0  0
    2.4207    8.8467    0.0000 O   0  0  0  0  0  0  0  0  0  0  0  0
    4.9646    4.9190    0.0000 N   0  0  0  0  0  0  0  0  0  0  0  0
    5.7875    6.0516    0.0000 C   0  0  0  0  0  0  0  0  0  0  0  0
    4.9646    7.1842    0.0000 N   0  0  0  0  0  0  0  0  0  0  0  0
    0.0000    4.6540    0.0000 N   0  0  0  0  0  0  0  0  0  0  0  0
    5.3957    3.5921    0.0000 C   0  0  1  0  0  0  0  0  0  0  0  0
    4.5728    2.4595    0.0000 C   0  0  0  0  0  0  0  0  0  0  0  0
    5.3957    1.3269    0.0000 C   0  0  1  0  0  0  0  0  0  0  0  0
    6.7272    1.7595    0.0000 C   0  0  2  0  0  0  0  0  0  0  0  0
    6.7272    3.1595    0.0000 C   0  0  0  0  0  0  0  0  0  0  0  0
    7.8559    3.9795    0.0000 C   0  0  0  0  0  0  0  0  0  0  0  0
    4.9646    0.0000    0.0000 O   0  0  0  0  0  0  0  0  0  0  0  0
    7.8559    0.9394    0.0000 C   0  0  0  0  0  0  0  0  0  0  0  0
    9.1304    1.5069    0.0000 O   0  0  0  0  0  0  0  0  0  0  0  0
   10.4994    5.5103    0.0000 O   0  0  0  0  0  0  0  0  0  0  0  0
  1  2  2  0  0  0  0
  2  3  1  0  0  0  0
  3  4  1  0  0  0  0
  4  5  2  0  0  0  0
  5  6  1  0  0  0  0
  6  1  1  0  0  0  0
  6  7  2  0  0  0  0
  4  8  1  0  0  0  0
  8  9  1  0  0  0  0
  9 10  2  0  0  0  0
 10  5  1  0  0  0  0
  2 11  1  0  0  0  0
  8 12  1  6  0  0  0
 12 13  1  0  0  0  0
 13 14  1  0  0  0  0
 14 15  1  0  0  0  0
 15 16  1  0  0  0  0
 16 12  1  0  0  0  0
 16 17  2  0  0  0  0
 14 18  1  1  0  0  0
 15 19  1  6  0  0  0
 19 20  1  0  0  0  0
M  END
>  <Mol_ID> (48)
1021

>  <Formula> (48)
C12H17N5O4

>  <MolWeight> (48)
295.29448

>  <Cat> (48)
S1252

>  <Name> (48)
Entecavir hydrate

>  <Synonyms> (48)
Baraclude 

>  <Target> (48)
Reverse Transcriptase

>  <Form> (48)
Hydrate

>  <CAS> (48)
209216-23-9

>  <URL> (48)
http://www.selleckchem.com/products/Entecavir.html

$$$$
Cyclocytidine hydrochloride.cdx
csChFnd80/01042310162D

 17 18  0  0  0  0  0  0  0  0999 V2000
    4.8287    5.9919    0.0000 C   0  0  0  0  0  0  0  0  0  0  0  0
    4.8287    4.5919    0.0000 N   0  0  0  0  0  0  0  0  0  0  0  0
    6.0411    3.8919    0.0000 C   0  0  0  0  0  0  0  0  0  0  0  0
    7.2535    4.5919    0.0000 N   0  0  0  0  0  0  0  0  0  0  0  0
    7.2535    5.9919    0.0000 C   0  0  0  0  0  0  0  0  0  0  0  0
    6.0411    6.6919    0.0000 C   0  0  0  0  0  0  0  0  0  0  0  0
    3.8387    3.6020    0.0000 C   0  0  1  0  0  0  0  0  0  0  0  0
    4.4743    2.3545    0.0000 C   0  0  1  0  0  0  0  0  0  0  0  0
    5.8571    2.5736    0.0000 O   0  0  0  0  0  0  0  0  0  0  0  0
    2.4864    3.2396    0.0000 O   0  0  0  0  0  0  0  0  0  0  0  0
    2.4131    1.8415    0.0000 C   0  0  1  0  0  0  0  0  0  0  0  0
    3.7202    1.3398    0.0000 C   0  0  1  0  0  0  0  0  0  0  0  0
    8.4660    6.6919    0.0000 N   0  0  0  0  0  0  0  0  0  0  0  0
    1.2431    1.0817    0.0000 C   0  0  0  0  0  0  0  0  0  0  0  0
    0.0000    1.7151    0.0000 O   0  0  0  0  0  0  0  0  0  0  0  0
    4.1092    0.0000    0.0000 O   0  0  0  0  0  0  0  0  0  0  0  0
    7.7759    0.7856    0.0000 Cl  0  0  0  0  0  0  0  0  0  0  0  0
  2  3  1  0  0  0  0
  4  5  1  0  0  0  0
  6  1  2  0  0  0  0
  7  8  1  0  0  0  0
  9  3  1  0  0  0  0
  7 10  1  0  0  0  0
 10 11  1  0  0  0  0
 11 12  1  0  0  0  0
 12  8  1  0  0  0  0
  1  2  1  0  0  0  0
  3  4  2  0  0  0  0
  5  6  1  0  0  0  0
  5 13  2  0  0  0  0
  7  2  1  1  0  0  0
  8  9  1  1  0  0  0
 11 14  1  1  0  0  0
 14 15  1  0  0  0  0
 12 16  1  6  0  0  0
M  END
>  <Mol_ID> (49)
1078

>  <Formula> (49)
C9H12ClN3O4

>  <MolWeight> (49)
261.66228

>  <Cat> (49)
S1973

>  <Name> (49)
Cyclocytidine HCl

>  <Synonyms> (49)
N/A 

>  <Target> (49)
DNA/RNA Synthesis

>  <Form> (49)
Hydrochloride

>  <CAS> (49)
10212-25-6

>  <URL> (49)
http://www.selleckchem.com/products/cyclocytidine-hcl.html

$$$$
Inosine.cdx
csChFnd80/01042310162D

 19 21  0  0  0  0  0  0  0  0999 V2000
    2.7495    3.2831    0.0000 O   0  0  0  0  0  0  0  0  0  0  0  0
    1.6169    2.4602    0.0000 C   0  0  1  0  0  0  0  0  0  0  0  0
    2.0495    1.1287    0.0000 C   0  0  2  0  0  0  0  0  0  0  0  0
    3.4495    1.1287    0.0000 C   0  0  2  0  0  0  0  0  0  0  0  0
    3.8822    2.4602    0.0000 C   0  0  2  0  0  0  0  0  0  0  0  0
    1.2295    0.0000    0.0000 O   0  0  0  0  0  0  0  0  0  0  0  0
    4.2696    0.0000    0.0000 O   0  0  0  0  0  0  0  0  0  0  0  0
    0.2901    2.8913    0.0000 C   0  0  0  0  0  0  0  0  0  0  0  0
    0.0000    4.2559    0.0000 O   0  0  0  0  0  0  0  0  0  0  0  0
    6.3954    2.0581    0.0000 C   0  0  0  0  0  0  0  0  0  0  0  0
    7.5280    2.8810    0.0000 N   0  0  0  0  0  0  0  0  0  0  0  0
    7.0954    4.2124    0.0000 C   0  0  0  0  0  0  0  0  0  0  0  0
    5.6954    4.2124    0.0000 C   0  0  0  0  0  0  0  0  0  0  0  0
    5.2628    2.8810    0.0000 N   0  0  0  0  0  0  0  0  0  0  0  0
    7.7954    5.4249    0.0000 C   0  0  0  0  0  0  0  0  0  0  0  0
    7.0954    6.6373    0.0000 N   0  0  0  0  0  0  0  0  0  0  0  0
    5.6954    6.6373    0.0000 C   0  0  0  0  0  0  0  0  0  0  0  0
    4.9954    5.4249    0.0000 N   0  0  0  0  0  0  0  0  0  0  0  0
    9.1905    5.4249    0.0000 O   0  0  0  0  0  0  0  0  0  0  0  0
  1  2  1  0  0  0  0
  2  3  1  0  0  0  0
  3  4  1  0  0  0  0
  4  5  1  0  0  0  0
  5  1  1  0  0  0  0
  3  6  1  6  0  0  0
  4  7  1  6  0  0  0
  2  8  1  1  0  0  0
  8  9  1  0  0  0  0
 10 11  2  0  0  0  0
 11 12  1  0  0  0  0
 12 13  2  0  0  0  0
 13 14  1  0  0  0  0
 14 10  1  0  0  0  0
  5 14  1  1  0  0  0
 12 15  1  0  0  0  0
 15 16  1  0  0  0  0
 16 17  1  0  0  0  0
 17 18  2  0  0  0  0
 18 13  1  0  0  0  0
 15 19  2  0  0  0  0
M  END
>  <Mol_ID> (50)
1093

>  <Formula> (50)
C10H12N4O5

>  <MolWeight> (50)
268.22608

>  <Cat> (50)
S2442

>  <Name> (50)
Inosine

>  <Synonyms> (50)
N/A

>  <Target> (50)
Others

>  <Form> (50)
Free Base

>  <CAS> (50)
58-63-9

>  <URL> (50)
http://www.selleckchem.com/products/inosine.html

$$$$
etravirine (TMC125).cdx
csChFnd80/01042310162D

 28 30  0  0  0  0  0  0  0  0999 V2000
    9.7494    7.6718    0.0000 C   0  0  0  0  0  0  0  0  0  0  0  0
    8.5389    6.9684    0.0000 N   0  0  0  0  0  0  0  0  0  0  0  0
    7.3120    9.0623    0.0000 N   0  0  0  0  0  0  0  0  0  0  0  0
    7.3120    7.6718    0.0000 C   0  0  0  0  0  0  0  0  0  0  0  0
    9.7494    9.0623    0.0000 C   0  0  0  0  0  0  0  0  0  0  0  0
    8.5389    9.7657    0.0000 C   0  0  0  0  0  0  0  0  0  0  0  0
   10.9434    6.9684    0.0000 O   0  0  0  0  0  0  0  0  0  0  0  0
   10.9434    5.5780    0.0000 C   0  0  0  0  0  0  0  0  0  0  0  0
    9.7166    4.8746    0.0000 C   0  0  0  0  0  0  0  0  0  0  0  0
   12.1213    4.8746    0.0000 C   0  0  0  0  0  0  0  0  0  0  0  0
   10.9434    0.0000    0.0000 N   0  0  0  0  0  0  0  0  0  0  0  0
    0.0000   10.4526    0.0000 N   0  0  0  0  0  0  0  0  0  0  0  0
    6.0525    6.9684    0.0000 N   0  0  0  0  0  0  0  0  0  0  0  0
   10.9434    1.3903    0.0000 C   0  0  0  0  0  0  0  0  0  0  0  0
    1.2105    9.7657    0.0000 C   0  0  0  0  0  0  0  0  0  0  0  0
   10.9434    2.7809    0.0000 C   0  0  0  0  0  0  0  0  0  0  0  0
   12.1213    3.4843    0.0000 C   0  0  0  0  0  0  0  0  0  0  0  0
    9.7166    3.4678    0.0000 C   0  0  0  0  0  0  0  0  0  0  0  0
    8.5389   11.1560    0.0000 N   0  0  0  0  0  0  0  0  0  0  0  0
   10.9434    9.7984    0.0000 Br  0  0  0  0  0  0  0  0  0  0  0  0
    2.4374    9.0623    0.0000 C   0  0  0  0  0  0  0  0  0  0  0  0
    4.8746    7.6718    0.0000 C   0  0  0  0  0  0  0  0  0  0  0  0
    3.6479    9.7657    0.0000 C   0  0  0  0  0  0  0  0  0  0  0  0
    2.4374    7.6718    0.0000 C   0  0  0  0  0  0  0  0  0  0  0  0
    4.8746    9.0623    0.0000 C   0  0  0  0  0  0  0  0  0  0  0  0
    3.6479    6.9684    0.0000 C   0  0  0  0  0  0  0  0  0  0  0  0
    8.4897    5.6108    0.0000 C   0  0  0  0  0  0  0  0  0  0  0  0
   13.3808    5.6108    0.0000 C   0  0  0  0  0  0  0  0  0  0  0  0
  2  1  1  0  0  0  0
  5  1  2  0  0  0  0
  7  1  1  0  0  0  0
  4  2  2  0  0  0  0
  3  6  2  0  0  0  0
  4  3  1  0  0  0  0
 13  4  1  0  0  0  0
  6  5  1  0  0  0  0
 20  5  1  0  0  0  0
 19  6  1  0  0  0  0
  8  7  1  0  0  0  0
  9  8  1  0  0  0  0
 10  8  2  0  0  0  0
 18  9  2  0  0  0  0
 27  9  1  0  0  0  0
 17 10  1  0  0  0  0
 28 10  1  0  0  0  0
 11 14  3  0  0  0  0
 12 15  3  0  0  0  0
 22 13  1  0  0  0  0
 14 16  1  0  0  0  0
 15 21  1  0  0  0  0
 16 17  2  0  0  0  0
 18 16  1  0  0  0  0
 21 24  2  0  0  0  0
 23 21  1  0  0  0  0
 25 22  1  0  0  0  0
 26 22  2  0  0  0  0
 23 25  2  0  0  0  0
 24 26  1  0  0  0  0
M  END
>  <Mol_ID> (51)
1105

>  <Formula> (51)
C20H15BrN6O

>  <MolWeight> (51)
435.2767

>  <Cat> (51)
S3080

>  <Name> (51)
Etravirine (TMC125)

>  <Synonyms> (51)
N/A

>  <Target> (51)
Reverse Transcriptase

>  <Form> (51)
Free Base

>  <CAS> (51)
269055-15-4

>  <URL> (51)
http://www.selleckchem.com/products/etravirine-tmc125.html

$$$$
Guanosine.cdx
csChFnd80/01042310162D

 20 22  0  0  0  0  0  0  0  0999 V2000
    5.6199    4.1959    0.0000 C   0  0  0  0  0  0  0  0  0  0  0  0
    5.2022    2.8755    0.0000 N   0  0  0  0  0  0  0  0  0  0  0  0
    7.0358    4.1959    0.0000 C   0  0  0  0  0  0  0  0  0  0  0  0
    4.9119    5.4249    0.0000 N   0  0  0  0  0  0  0  0  0  0  0  0
    3.8898    2.4260    0.0000 C   0  0  2  0  0  0  0  0  0  0  0  0
    6.3397    2.0841    0.0000 C   0  0  0  0  0  0  0  0  0  0  0  0
    7.4692    2.9113    0.0000 N   0  0  0  0  0  0  0  0  0  0  0  0
    7.7477    5.4249    0.0000 C   0  0  0  0  0  0  0  0  0  0  0  0
    5.6199    6.6540    0.0000 C   0  0  0  0  0  0  0  0  0  0  0  0
    2.7482    3.2653    0.0000 O   0  0  0  0  0  0  0  0  0  0  0  0
    3.4761    1.1295    0.0000 C   0  0  1  0  0  0  0  0  0  0  0  0
    7.0358    6.6540    0.0000 N   0  0  0  0  0  0  0  0  0  0  0  0
    9.1477    5.4249    0.0000 O   0  0  0  0  0  0  0  0  0  0  0  0
    4.9158    7.8709    0.0000 N   0  0  0  0  0  0  0  0  0  0  0  0
    1.6308    2.4419    0.0000 C   0  0  1  0  0  0  0  0  0  0  0  0
    2.0761    1.1295    0.0000 C   0  0  1  0  0  0  0  0  0  0  0  0
    4.2954    0.0080    0.0000 O   0  0  0  0  0  0  0  0  0  0  0  0
    0.3022    2.8555    0.0000 C   0  0  0  0  0  0  0  0  0  0  0  0
    1.2648    0.0000    0.0000 O   0  0  0  0  0  0  0  0  0  0  0  0
    0.0000    4.2119    0.0000 O   0  0  0  0  0  0  0  0  0  0  0  0
  1  2  1  0  0  0  0
  1  3  2  0  0  0  0
  1  4  1  0  0  0  0
  5  2  1  1  0  0  0
  2  6  1  0  0  0  0
  3  7  1  0  0  0  0
  3  8  1  0  0  0  0
  4  9  2  0  0  0  0
  5 10  1  0  0  0  0
  5 11  1  0  0  0  0
  6  7  2  0  0  0  0
  8 12  1  0  0  0  0
  8 13  2  0  0  0  0
  9 14  1  0  0  0  0
  9 12  1  0  0  0  0
 10 15  1  0  0  0  0
 11 16  1  0  0  0  0
 11 17  1  6  0  0  0
 15 18  1  1  0  0  0
 15 16  1  0  0  0  0
 16 19  1  6  0  0  0
 18 20  1  0  0  0  0
M  END
>  <Mol_ID> (52)
1112

>  <Formula> (52)
C10H13N5O5

>  <MolWeight> (52)
283.24072

>  <Cat> (52)
S2439

>  <Name> (52)
Guanosine

>  <Synonyms> (52)
N/A

>  <Target> (52)
Others

>  <Form> (52)
Free base

>  <CAS> (52)
118-00-3

>  <URL> (52)
http://www.selleckchem.com/products/guanosine.html

$$$$
Dapivirine.cdx
csChFnd80/01042310162D

 25 27  0  0  0  0  0  0  0  0999 V2000
    4.9000    3.6373    0.0000 N   0  0  0  0  0  0  0  0  0  0  0  0
    6.3000    3.6373    0.0000 C   0  0  0  0  0  0  0  0  0  0  0  0
    2.1000    3.6373    0.0000 C   0  0  0  0  0  0  0  0  0  0  0  0
    4.2000    4.8497    0.0000 C   0  0  0  0  0  0  0  0  0  0  0  0
    2.8000    4.8497    0.0000 N   0  0  0  0  0  0  0  0  0  0  0  0
    0.7000    3.6373    0.0000 C   0  0  0  0  0  0  0  0  0  0  0  0
    2.8000    2.4249    0.0000 C   0  0  0  0  0  0  0  0  0  0  0  0
   14.0000    2.4249    0.0000 N   0  0  0  0  0  0  0  0  0  0  0  0
    7.0000    4.8497    0.0000 N   0  0  0  0  0  0  0  0  0  0  0  0
   12.6000    2.4249    0.0000 C   0  0  0  0  0  0  0  0  0  0  0  0
    7.0000    2.4249    0.0000 N   0  0  0  0  0  0  0  0  0  0  0  0
    0.0000    2.4249    0.0000 C   0  0  0  0  0  0  0  0  0  0  0  0
    2.1000    1.2124    0.0000 C   0  0  0  0  0  0  0  0  0  0  0  0
    4.9000    6.0622    0.0000 C   0  0  0  0  0  0  0  0  0  0  0  0
    0.7000    1.2124    0.0000 C   0  0  0  0  0  0  0  0  0  0  0  0
   11.2000    2.4249    0.0000 C   0  0  0  0  0  0  0  0  0  0  0  0
    8.4000    2.4249    0.0000 C   0  0  0  0  0  0  0  0  0  0  0  0
    6.3000    6.0622    0.0000 C   0  0  0  0  0  0  0  0  0  0  0  0
   10.5000    3.6373    0.0000 C   0  0  0  0  0  0  0  0  0  0  0  0
   10.5000    1.2124    0.0000 C   0  0  0  0  0  0  0  0  0  0  0  0
    9.1000    3.6373    0.0000 C   0  0  0  0  0  0  0  0  0  0  0  0
    9.1000    1.2124    0.0000 C   0  0  0  0  0  0  0  0  0  0  0  0
    4.2000    2.4249    0.0000 C   0  0  0  0  0  0  0  0  0  0  0  0
    0.0000    4.8497    0.0000 C   0  0  0  0  0  0  0  0  0  0  0  0
    0.0000    0.0000    0.0000 C   0  0  0  0  0  0  0  0  0  0  0  0
  2  1  2  0  0  0  0
  4  1  1  0  0  0  0
  9  2  1  0  0  0  0
 11  2  1  0  0  0  0
  3  5  1  0  0  0  0
  6  3  1  0  0  0  0
  7  3  2  0  0  0  0
  5  4  1  0  0  0  0
 14  4  2  0  0  0  0
 12  6  2  0  0  0  0
 24  6  1  0  0  0  0
 13  7  1  0  0  0  0
 23  7  1  0  0  0  0
  8 10  3  0  0  0  0
 18  9  2  0  0  0  0
 10 16  1  0  0  0  0
 17 11  1  0  0  0  0
 12 15  1  0  0  0  0
 15 13  2  0  0  0  0
 18 14  1  0  0  0  0
 25 15  1  0  0  0  0
 16 20  1  0  0  0  0
 19 16  2  0  0  0  0
 21 17  2  0  0  0  0
 22 17  1  0  0  0  0
 19 21  1  0  0  0  0
 20 22  2  0  0  0  0
M  END
>  <Mol_ID> (53)
1150

>  <Formula> (53)
C20H19N5

>  <MolWeight> (53)
329.39836

>  <Cat> (53)
S2914

>  <Name> (53)
Dapivirine (TMC120)

>  <Synonyms> (53)
N/A

>  <Target> (53)
Reverse Transcriptase

>  <Form> (53)
Free Base

>  <CAS> (53)
244767-67-7

>  <URL> (53)
http://www.selleckchem.com/products/dapivirine.html

$$$$
Clevudine.cdx
csChFnd80/01042310162D

 18 19  0  0  0  0  0  0  0  0999 V2000
    1.2082    3.4951    0.0000 N   0  0  0  0  0  0  0  0  0  0  0  0
    1.2082    2.0951    0.0000 C   0  0  0  0  0  0  0  0  0  0  0  0
    2.4207    1.3951    0.0000 C   0  0  0  0  0  0  0  0  0  0  0  0
    3.6331    2.0951    0.0000 C   0  0  0  0  0  0  0  0  0  0  0  0
    3.6331    3.4951    0.0000 N   0  0  0  0  0  0  0  0  0  0  0  0
    2.4207    4.1951    0.0000 C   0  0  0  0  0  0  0  0  0  0  0  0
    2.4207    5.5903    0.0000 O   0  0  0  0  0  0  0  0  0  0  0  0
    0.0000    1.3976    0.0000 O   0  0  0  0  0  0  0  0  0  0  0  0
    2.4207    0.0000    0.0000 C   0  0  0  0  0  0  0  0  0  0  0  0
    4.8413    4.1927    0.0000 C   0  0  1  0  0  0  0  0  0  0  0  0
    6.1203    3.6233    0.0000 O   0  0  0  0  0  0  0  0  0  0  0  0
    7.0571    4.6637    0.0000 C   0  0  2  0  0  0  0  0  0  0  0  0
    6.3571    5.8761    0.0000 C   0  0  1  0  0  0  0  0  0  0  0  0
    4.9877    5.5850    0.0000 C   0  0  1  0  0  0  0  0  0  0  0  0
    3.9509    6.5186    0.0000 F   0  0  0  0  0  0  0  0  0  0  0  0
    6.9245    7.1506    0.0000 O   0  0  0  0  0  0  0  0  0  0  0  0
    8.4446    4.5179    0.0000 C   0  0  0  0  0  0  0  0  0  0  0  0
    9.2646    5.6465    0.0000 O   0  0  0  0  0  0  0  0  0  0  0  0
  1  2  1  0  0  0  0
  2  3  1  0  0  0  0
  3  4  2  0  0  0  0
  4  5  1  0  0  0  0
  5  6  1  0  0  0  0
  6  1  1  0  0  0  0
  6  7  2  0  0  0  0
  2  8  2  0  0  0  0
  3  9  1  0  0  0  0
 10  5  1  6  0  0  0
 10 11  1  0  0  0  0
 11 12  1  0  0  0  0
 12 13  1  0  0  0  0
 13 14  1  0  0  0  0
 14 10  1  0  0  0  0
 14 15  1  6  0  0  0
 13 16  1  1  0  0  0
 12 17  1  6  0  0  0
 17 18  1  0  0  0  0
M  END
>  <Mol_ID> (54)
1225

>  <Formula> (54)
C10H13FN2O5

>  <MolWeight> (54)
260.2190232

>  <Cat> (54)
S3001

>  <Name> (54)
Clevudine (Levovir)

>  <Synonyms> (54)
N/A

>  <Target> (54)
Others

>  <Form> (54)
Free Base

>  <CAS> (54)
163252-36-6

>  <URL> (54)
http://www.selleckchem.com/products/clevudine-levovir.html

$$$$
N6-methyladenosine.cdx
csChFnd80/01042310162D

 20 22  0  0  0  0  0  0  0  0999 V2000
    0.0000    0.9350    0.0000 O   0  0  0  0  0  0  0  0  0  0  0  0
    1.3523    0.5727    0.0000 C   0  0  0  0  0  0  0  0  0  0  0  0
    2.2891    1.6131    0.0000 C   0  0  2  0  0  0  0  0  0  0  0  0
    1.9980    2.9825    0.0000 C   0  0  1  0  0  0  0  0  0  0  0  0
    0.7190    3.5519    0.0000 O   0  0  0  0  0  0  0  0  0  0  0  0
    3.2104    3.6825    0.0000 C   0  0  1  0  0  0  0  0  0  0  0  0
    3.3568    5.0748    0.0000 O   0  0  0  0  0  0  0  0  0  0  0  0
    4.2508    2.7457    0.0000 C   0  0  1  0  0  0  0  0  0  0  0  0
    3.6814    1.4667    0.0000 O   0  0  0  0  0  0  0  0  0  0  0  0
    5.6202    3.0368    0.0000 N   0  0  0  0  0  0  0  0  0  0  0  0
    6.1897    4.3157    0.0000 C   0  0  0  0  0  0  0  0  0  0  0  0
    7.5820    4.1694    0.0000 N   0  0  0  0  0  0  0  0  0  0  0  0
    7.8731    2.8000    0.0000 C   0  0  0  0  0  0  0  0  0  0  0  0
    9.0855    2.1000    0.0000 C   0  0  0  0  0  0  0  0  0  0  0  0
   10.2980    2.8000    0.0000 N   0  0  0  0  0  0  0  0  0  0  0  0
    9.0855    0.7000    0.0000 N   0  0  0  0  0  0  0  0  0  0  0  0
    7.8731    0.0000    0.0000 C   0  0  0  0  0  0  0  0  0  0  0  0
    6.6606    0.7000    0.0000 N   0  0  0  0  0  0  0  0  0  0  0  0
    6.6606    2.1000    0.0000 C   0  0  0  0  0  0  0  0  0  0  0  0
   11.5104    2.1000    0.0000 C   0  0  0  0  0  0  0  0  0  0  0  0
  1  2  1  0  0  0  0
  3  2  1  6  0  0  0
  3  4  1  0  0  0  0
  4  5  1  1  0  0  0
  4  6  1  0  0  0  0
  6  7  1  1  0  0  0
  6  8  1  0  0  0  0
  8  9  1  0  0  0  0
  3  9  1  0  0  0  0
  8 10  1  6  0  0  0
 10 11  1  0  0  0  0
 11 12  2  0  0  0  0
 12 13  1  0  0  0  0
 13 14  1  0  0  0  0
 14 15  1  0  0  0  0
 14 16  2  0  0  0  0
 16 17  1  0  0  0  0
 17 18  2  0  0  0  0
 18 19  1  0  0  0  0
 13 19  2  0  0  0  0
 10 19  1  0  0  0  0
 15 20  1  0  0  0  0
M  END
>  <Mol_ID> (55)
1240

>  <Formula> (55)
C11H15N5O4

>  <MolWeight> (55)
281.2679

>  <Cat> (55)
S3190

>  <Name> (55)
N6-methyladenosine (m6A)

>  <Synonyms> (55)
NSC-29409

>  <Target> (55)
Others

>  <Form> (55)
Free Base

>  <CAS> (55)
1867-73-8

>  <URL> (55)
http://www.selleckchem.com/products/n6-methyladenosine.html

$$$$
CGS-21680 hydrochloride.cdx
csChFnd80/01042310162D

 37 39  0  0  0  0  0  0  0  0999 V2000
    7.6095   10.4927    0.0000 C   0  0  0  0  0  0  0  0  0  0  0  0
    7.6095    9.0927    0.0000 C   0  0  0  0  0  0  0  0  0  0  0  0
    8.8219    8.3927    0.0000 N   0  0  0  0  0  0  0  0  0  0  0  0
   10.0344    9.0927    0.0000 C   0  0  0  0  0  0  0  0  0  0  0  0
   10.0344   10.4927    0.0000 N   0  0  0  0  0  0  0  0  0  0  0  0
    8.8219   11.1927    0.0000 C   0  0  0  0  0  0  0  0  0  0  0  0
    6.2780   10.9253    0.0000 N   0  0  0  0  0  0  0  0  0  0  0  0
    5.4551    9.7927    0.0000 C   0  0  0  0  0  0  0  0  0  0  0  0
    6.2780    8.6601    0.0000 N   0  0  0  0  0  0  0  0  0  0  0  0
    8.8219   12.5879    0.0000 N   0  0  0  0  0  0  0  0  0  0  0  0
    6.2780    7.2601    0.0000 C   0  0  2  0  0  0  0  0  0  0  0  0
    5.0656    7.9601    0.0000 O   0  0  0  0  0  0  0  0  0  0  0  0
    4.0252    7.0233    0.0000 C   0  0  1  0  0  0  0  0  0  0  0  0
    4.5946    5.7443    0.0000 C   0  0  2  0  0  0  0  0  0  0  0  0
    5.9869    5.8907    0.0000 C   0  0  1  0  0  0  0  0  0  0  0  0
    2.6605    7.3134    0.0000 C   0  0  0  0  0  0  0  0  0  0  0  0
    1.7270    6.2766    0.0000 N   0  0  0  0  0  0  0  0  0  0  0  0
    2.2294    8.6402    0.0000 O   0  0  0  0  0  0  0  0  0  0  0  0
    0.3623    6.5666    0.0000 C   0  0  0  0  0  0  0  0  0  0  0  0
    0.0000    7.9189    0.0000 C   0  0  0  0  0  0  0  0  0  0  0  0
   11.2426    8.3951    0.0000 N   0  0  0  0  0  0  0  0  0  0  0  0
   11.2426    6.9951    0.0000 C   0  0  0  0  0  0  0  0  0  0  0  0
   12.4550    6.2951    0.0000 C   0  0  0  0  0  0  0  0  0  0  0  0
   12.4550    4.8951    0.0000 C   0  0  0  0  0  0  0  0  0  0  0  0
   11.2426    4.1951    0.0000 C   0  0  0  0  0  0  0  0  0  0  0  0
   11.2426    2.7951    0.0000 C   0  0  0  0  0  0  0  0  0  0  0  0
   12.4550    2.0951    0.0000 C   0  0  0  0  0  0  0  0  0  0  0  0
   13.6675    2.7951    0.0000 C   0  0  0  0  0  0  0  0  0  0  0  0
   13.6675    4.1951    0.0000 C   0  0  0  0  0  0  0  0  0  0  0  0
   12.4550    0.7000    0.0000 C   0  0  0  0  0  0  0  0  0  0  0  0
   11.2426    0.0000    0.0000 C   0  0  0  0  0  0  0  0  0  0  0  0
   10.0302    0.7000    0.0000 C   0  0  0  0  0  0  0  0  0  0  0  0
   10.0302    2.0951    0.0000 O   0  0  0  0  0  0  0  0  0  0  0  0
    8.8219    0.0024    0.0000 O   0  0  0  0  0  0  0  0  0  0  0  0
    3.8970    4.5361    0.0000 O   0  0  0  0  0  0  0  0  0  0  0  0
    6.9205    4.8539    0.0000 O   0  0  0  0  0  0  0  0  0  0  0  0
    2.2442    1.2031    0.0000 Cl  0  0  0  0  0  0  0  0  0  0  0  0
  1  2  2  0  0  0  0
  2  3  1  0  0  0  0
  3  4  2  0  0  0  0
  4  5  1  0  0  0  0
  5  6  2  0  0  0  0
  6  1  1  0  0  0  0
  1  7  1  0  0  0  0
  7  8  2  0  0  0  0
  8  9  1  0  0  0  0
  9  2  1  0  0  0  0
  6 10  1  0  0  0  0
 11  9  1  1  0  0  0
 11 12  1  0  0  0  0
 12 13  1  0  0  0  0
 13 14  1  0  0  0  0
 14 15  1  0  0  0  0
 15 11  1  0  0  0  0
 13 16  1  1  0  0  0
 16 17  1  0  0  0  0
 16 18  2  0  0  0  0
 17 19  1  0  0  0  0
 19 20  1  0  0  0  0
  4 21  1  0  0  0  0
 21 22  1  0  0  0  0
 22 23  1  0  0  0  0
 23 24  1  0  0  0  0
 24 25  2  0  0  0  0
 25 26  1  0  0  0  0
 26 27  2  0  0  0  0
 27 28  1  0  0  0  0
 28 29  2  0  0  0  0
 29 24  1  0  0  0  0
 27 30  1  0  0  0  0
 30 31  1  0  0  0  0
 31 32  1  0  0  0  0
 32 33  1  0  0  0  0
 32 34  2  0  0  0  0
 14 35  1  6  0  0  0
 15 36  1  6  0  0  0
M  END
>  <Mol_ID> (56)
1241

>  <Formula> (56)
C23H30ClN7O6

>  <MolWeight> (56)
535.9806

>  <Cat> (56)
S2153

>  <Name> (56)
CGS 21680 HCl

>  <Synonyms> (56)
N/A

>  <Target> (56)
5-alpha Reductase

>  <Form> (56)
Hydrochloride

>  <CAS> (56)
124431-80-7

>  <URL> (56)
http://www.selleckchem.com/products/CGS-21680-hydrochloride.html

$$$$
aicar.cdx
csChFnd80/01042310162D

 18 19  0  0  0  0  0  0  0  0999 V2000
    2.8045    1.1326    0.0000 C   0  0  1  0  0  0  0  0  0  0  0  0
    4.2045    1.1326    0.0000 C   0  0  2  0  0  0  0  0  0  0  0  0
    4.6371    2.4641    0.0000 C   0  0  1  0  0  0  0  0  0  0  0  0
    3.5045    3.2870    0.0000 O   0  0  0  0  0  0  0  0  0  0  0  0
    2.3719    2.4641    0.0000 C   0  0  2  0  0  0  0  0  0  0  0  0
    1.0404    2.8967    0.0000 C   0  0  0  0  0  0  0  0  0  0  0  0
    5.9686    2.8967    0.0000 N   0  0  0  0  0  0  0  0  0  0  0  0
    1.9816    0.0000    0.0000 O   0  0  0  0  0  0  0  0  0  0  0  0
    5.0274    0.0000    0.0000 O   0  0  0  0  0  0  0  0  0  0  0  0
    0.0000    1.9599    0.0000 O   0  0  0  0  0  0  0  0  0  0  0  0
    7.1012    2.0738    0.0000 C   0  0  0  0  0  0  0  0  0  0  0  0
    8.2339    2.8967    0.0000 N   0  0  0  0  0  0  0  0  0  0  0  0
    7.8012    4.2282    0.0000 C   0  0  0  0  0  0  0  0  0  0  0  0
    6.4012    4.2282    0.0000 C   0  0  0  0  0  0  0  0  0  0  0  0
    5.5783    5.3608    0.0000 N   0  0  0  0  0  0  0  0  0  0  0  0
    8.6241    5.3608    0.0000 C   0  0  0  0  0  0  0  0  0  0  0  0
   10.0165    5.2145    0.0000 O   0  0  0  0  0  0  0  0  0  0  0  0
    8.0547    6.6398    0.0000 N   0  0  0  0  0  0  0  0  0  0  0  0
  1  2  1  0  0  0  0
  2  3  1  0  0  0  0
  3  4  1  0  0  0  0
  4  5  1  0  0  0  0
  5  1  1  0  0  0  0
  5  6  1  1  0  0  0
  3  7  1  1  0  0  0
  1  8  1  6  0  0  0
  2  9  1  6  0  0  0
  6 10  1  0  0  0  0
  7 11  1  0  0  0  0
 11 12  2  0  0  0  0
 13 14  2  0  0  0  0
 14  7  1  0  0  0  0
 13 12  1  0  0  0  0
 14 15  1  0  0  0  0
 13 16  1  0  0  0  0
 16 17  2  0  0  0  0
 16 18  1  0  0  0  0
M  END
>  <Mol_ID> (57)
1249

>  <Formula> (57)
C9H14N4O5

>  <MolWeight> (57)
258.23126

>  <Cat> (57)
S1802

>  <Name> (57)
AICAR (Acadesine)

>  <Synonyms> (57)
AICAR, AICA-riboside

>  <Target> (57)
AMPK

>  <Form> (57)
Free Base

>  <CAS> (57)
2627-69-2

>  <URL> (57)
http://www.selleckchem.com/products/Acadesine.html

$$$$
valganciclovir hydrochloride.cdx
csChFnd80/01042310162D

 26 26  0  0  0  0  0  0  0  0999 V2000
   11.7965    0.9905    0.0000 C   0  0  0  0  0  0  0  0  0  0  0  0
   10.5841    0.2905    0.0000 C   0  0  0  0  0  0  0  0  0  0  0  0
   13.0090    0.2905    0.0000 C   0  0  0  0  0  0  0  0  0  0  0  0
   11.7965    2.3905    0.0000 C   0  0  1  0  0  0  0  0  0  0  0  0
   10.5841    3.0905    0.0000 C   0  0  0  0  0  0  0  0  0  0  0  0
   13.0090    3.0905    0.0000 N   0  0  0  0  0  0  0  0  0  0  0  0
    9.3717    2.3905    0.0000 O   0  0  0  0  0  0  0  0  0  0  0  0
   10.5841    4.4905    0.0000 O   0  0  0  0  0  0  0  0  0  0  0  0
    8.1592    3.0905    0.0000 C   0  0  0  0  0  0  0  0  0  0  0  0
    8.1592    4.4905    0.0000 C   0  0  3  0  0  0  0  0  0  0  0  0
    9.3717    5.1905    0.0000 C   0  0  0  0  0  0  0  0  0  0  0  0
    9.3717    6.5905    0.0000 O   0  0  0  0  0  0  0  0  0  0  0  0
    6.9468    5.1905    0.0000 O   0  0  0  0  0  0  0  0  0  0  0  0
    5.7344    4.4905    0.0000 C   0  0  0  0  0  0  0  0  0  0  0  0
    4.5219    5.1905    0.0000 N   0  0  0  0  0  0  0  0  0  0  0  0
    4.3756    6.5829    0.0000 C   0  0  0  0  0  0  0  0  0  0  0  0
    3.0062    6.8739    0.0000 N   0  0  0  0  0  0  0  0  0  0  0  0
    2.3062    5.6615    0.0000 C   0  0  3  0  0  0  0  0  0  0  0  0
    3.2430    4.6211    0.0000 C   0  0  3  0  0  0  0  0  0  0  0  0
    0.9368    5.3704    0.0000 C   0  0  0  0  0  0  0  0  0  0  0  0
    0.5042    4.0389    0.0000 N   0  0  0  0  0  0  0  0  0  0  0  0
    1.4409    2.9985    0.0000 C   0  0  0  0  0  0  0  0  0  0  0  0
    2.8103    3.2896    0.0000 N   0  0  0  0  0  0  0  0  0  0  0  0
    1.0083    1.6671    0.0000 N   0  0  0  0  0  0  0  0  0  0  0  0
    0.0000    6.4108    0.0000 O   0  0  0  0  0  0  0  0  0  0  0  0
    4.7869    0.0000    0.0000 Cl  0  0  0  0  0  0  0  0  0  0  0  0
  1  2  1  0  0  0  0
  1  3  1  0  0  0  0
  1  4  1  0  0  0  0
  4  5  1  0  0  0  0
  4  6  1  1  0  0  0
  5  7  1  0  0  0  0
  5  8  2  0  0  0  0
  7  9  1  0  0  0  0
  9 10  1  0  0  0  0
 10 11  1  0  0  0  0
 11 12  1  0  0  0  0
 10 13  1  0  0  0  0
 13 14  1  0  0  0  0
 14 15  1  0  0  0  0
 15 16  1  0  0  0  0
 16 17  2  0  0  0  0
 17 18  1  0  0  0  0
 18 19  1  0  0  0  0
 19 15  1  0  0  0  0
 18 20  1  0  0  0  0
 20 21  1  0  0  0  0
 21 22  1  0  0  0  0
 22 23  2  0  0  0  0
 23 19  1  0  0  0  0
 22 24  1  0  0  0  0
 20 25  2  0  0  0  0
M  END
>  <Mol_ID> (58)
1307

>  <Formula> (58)
C14H25ClN6O5

>  <MolWeight> (58)
392.8385

>  <Cat> (58)
S4050

>  <Name> (58)
Valganciclovir Hydrochloride

>  <Synonyms> (58)
N/A

>  <Target> (58)
Antifection

>  <Form> (58)
Hydrochloride

>  <CAS> (58)
175865-59-5

>  <URL> (58)
http://www.selleckchem.com/products/valganciclovir-hcl.html

$$$$
Penciclovir.cdx
csChFnd80/01042310162D

 18 19  0  0  0  0  0  0  0  0999 V2000
    1.2151    7.1586    0.0000 N   0  0  0  0  0  0  0  0  0  0  0  0
    1.2151    5.7586    0.0000 C   0  0  0  0  0  0  0  0  0  0  0  0
    2.4249    5.0602    0.0000 N   0  0  0  0  0  0  0  0  0  0  0  0
    3.6308    5.7564    0.0000 C   0  0  0  0  0  0  0  0  0  0  0  0
    3.6308    7.1466    0.0000 C   0  0  0  0  0  0  0  0  0  0  0  0
    2.4278    7.8412    0.0000 C   0  0  0  0  0  0  0  0  0  0  0  0
    4.9657    5.3074    0.0000 N   0  0  0  0  0  0  0  0  0  0  0  0
    5.7942    6.4359    0.0000 C   0  0  0  0  0  0  0  0  0  0  0  0
    4.9770    7.5726    0.0000 N   0  0  0  0  0  0  0  0  0  0  0  0
    2.4278    9.2526    0.0000 O   0  0  0  0  0  0  0  0  0  0  0  0
    0.0000    5.0571    0.0000 N   0  0  0  0  0  0  0  0  0  0  0  0
    5.3917    3.9737    0.0000 C   0  0  0  0  0  0  0  0  0  0  0  0
    6.7597    3.6759    0.0000 C   0  0  0  0  0  0  0  0  0  0  0  0
    7.1857    2.3422    0.0000 C   0  0  0  0  0  0  0  0  0  0  0  0
    8.5380    1.9799    0.0000 C   0  0  0  0  0  0  0  0  0  0  0  0
    6.1957    1.3523    0.0000 C   0  0  0  0  0  0  0  0  0  0  0  0
    6.5581    0.0000    0.0000 O   0  0  0  0  0  0  0  0  0  0  0  0
    8.9003    0.6276    0.0000 O   0  0  0  0  0  0  0  0  0  0  0  0
  1  2  2  0  0  0  0
  2  3  1  0  0  0  0
  3  4  1  0  0  0  0
  4  5  2  0  0  0  0
  5  6  1  0  0  0  0
  6  1  1  0  0  0  0
  4  7  1  0  0  0  0
  7  8  1  0  0  0  0
  8  9  2  0  0  0  0
  9  5  1  0  0  0  0
  6 10  2  0  0  0  0
  2 11  1  0  0  0  0
  7 12  1  0  0  0  0
 12 13  1  0  0  0  0
 13 14  1  0  0  0  0
 14 15  1  0  0  0  0
 14 16  1  0  0  0  0
 16 17  1  0  0  0  0
 15 18  1  0  0  0  0
M  END
>  <Mol_ID> (59)
1359

>  <Formula> (59)
C10H15N5O3

>  <MolWeight> (59)
253.2578

>  <Cat> (59)
S4184

>  <Name> (59)
Penciclovir

>  <Synonyms> (59)
N/A

>  <Target> (59)
Antifection

>  <Form> (59)
Free Base

>  <CAS> (59)
39809-25-1

>  <URL> (59)
http://www.selleckchem.com/products/penciclovir.html

$$$$
Uracil.cdx
csChFnd80/01042310162D

  8  8  0  0  0  0  0  0  0  0999 V2000
    2.4267    2.0984    0.0000 N   0  0  0  0  0  0  0  0  0  0  0  0
    1.2161    2.8000    0.0000 C   0  0  0  0  0  0  0  0  0  0  0  0
    2.4244    0.6976    0.0000 C   0  0  0  0  0  0  0  0  0  0  0  0
    0.0018    2.1016    0.0000 C   0  0  0  0  0  0  0  0  0  0  0  0
    1.2161    4.1951    0.0000 O   0  0  0  0  0  0  0  0  0  0  0  0
    1.2115    0.0000    0.0000 N   0  0  0  0  0  0  0  0  0  0  0  0
    3.6326    0.0000    0.0000 O   0  0  0  0  0  0  0  0  0  0  0  0
    0.0000    0.7016    0.0000 C   0  0  0  0  0  0  0  0  0  0  0  0
  1  2  1  0  0  0  0
  1  3  1  0  0  0  0
  2  4  1  0  0  0  0
  2  5  2  0  0  0  0
  3  6  1  0  0  0  0
  3  7  2  0  0  0  0
  4  8  2  0  0  0  0
  6  8  1  0  0  0  0
M  END
>  <Mol_ID> (60)
1367

>  <Formula> (60)
C4H4N2O2

>  <MolWeight> (60)
112.08676

>  <Cat> (60)
S4177

>  <Name> (60)
Uracil

>  <Synonyms> (60)
N/A

>  <Target> (60)
Others

>  <Form> (60)
Free Base

>  <CAS> (60)
66-22-8

>  <URL> (60)
http://www.selleckchem.com/products/uracil.html

$$$$
Azaguanine-8.cdx
csChFnd80/01042310162D

 11 12  0  0  0  0  0  0  0  0999 V2000
    1.2082    3.4951    0.0000 C   0  0  0  0  0  0  0  0  0  0  0  0
    1.2082    2.0951    0.0000 N   0  0  0  0  0  0  0  0  0  0  0  0
    2.4207    1.3951    0.0000 C   0  0  0  0  0  0  0  0  0  0  0  0
    3.6331    2.0951    0.0000 C   0  0  0  0  0  0  0  0  0  0  0  0
    3.6331    3.4951    0.0000 C   0  0  0  0  0  0  0  0  0  0  0  0
    2.4207    4.1951    0.0000 N   0  0  0  0  0  0  0  0  0  0  0  0
    4.9646    1.6625    0.0000 N   0  0  0  0  0  0  0  0  0  0  0  0
    5.7875    2.7951    0.0000 N   0  0  0  0  0  0  0  0  0  0  0  0
    4.9646    3.9278    0.0000 N   0  0  0  0  0  0  0  0  0  0  0  0
    0.0000    4.1927    0.0000 N   0  0  0  0  0  0  0  0  0  0  0  0
    2.4207    0.0000    0.0000 O   0  0  0  0  0  0  0  0  0  0  0  0
  1  2  1  0  0  0  0
  2  3  1  0  0  0  0
  3  4  1  0  0  0  0
  4  5  2  0  0  0  0
  5  6  1  0  0  0  0
  6  1  2  0  0  0  0
  4  7  1  0  0  0  0
  7  8  2  0  0  0  0
  8  9  1  0  0  0  0
  9  5  1  0  0  0  0
  1 10  1  0  0  0  0
  3 11  2  0  0  0  0
M  END
>  <Mol_ID> (61)
1371

>  <Formula> (61)
C4H4N6O

>  <MolWeight> (61)
152.11416

>  <Cat> (61)
S4194

>  <Name> (61)
Azaguanine-8

>  <Synonyms> (61)
N/A

>  <Target> (61)
Others

>  <Form> (61)
Free Base

>  <CAS> (61)
134-58-7

>  <URL> (61)
http://www.selleckchem.com/products/azaguanine-8.html

$$$$
untitled.cdx
csChFnd80/01042310162D

 23 26  0  0  0  0  0  0  0  0999 V2000
    4.2572    1.2898    0.0000 C   0  0  2  0  0  0  0  0  0  0  0  0
    2.8425    1.2140    0.0000 C   0  0  1  0  0  0  0  0  0  0  0  0
    2.3420    2.4815    0.0000 C   0  0  2  0  0  0  0  0  0  0  0  0
    3.4421    3.4132    0.0000 O   0  0  0  0  0  0  0  0  0  0  0  0
    4.5937    2.6157    0.0000 C   0  0  1  0  0  0  0  0  0  0  0  0
    0.9912    2.8048    0.0000 C   0  0  0  0  0  0  0  0  0  0  0  0
    0.0000    1.8136    0.0000 O   0  0  0  0  0  0  0  0  0  0  0  0
    5.9065    3.1073    0.0000 N   0  0  0  0  0  0  0  0  0  0  0  0
    6.2908    4.4452    0.0000 C   0  0  0  0  0  0  0  0  0  0  0  0
    7.0775    2.3493    0.0000 C   0  0  0  0  0  0  0  0  0  0  0  0
    8.1625    3.2567    0.0000 C   0  0  0  0  0  0  0  0  0  0  0  0
    7.6135    4.4632    0.0000 C   0  0  0  0  0  0  0  0  0  0  0  0
    8.4153    5.5860    0.0000 C   0  0  0  0  0  0  0  0  0  0  0  0
    7.6991    6.8437    0.0000 N   0  0  0  0  0  0  0  0  0  0  0  0
    6.2952    6.8600    0.0000 C   0  0  0  0  0  0  0  0  0  0  0  0
    5.5877    5.6520    0.0000 N   0  0  0  0  0  0  0  0  0  0  0  0
    9.7836    5.4535    0.0000 N   0  0  0  0  0  0  0  0  0  0  0  0
   10.3532    4.2016    0.0000 N   0  0  0  0  0  0  0  0  0  0  0  0
    9.5468    3.0724    0.0000 C   0  0  0  0  0  0  0  0  0  0  0  0
   10.1044    1.7863    0.0000 N   0  0  0  0  0  0  0  0  0  0  0  0
   10.5983    6.5942    0.0000 C   0  0  0  0  0  0  0  0  0  0  0  0
    2.1416    0.0000    0.0000 O   0  0  0  0  0  0  0  0  0  0  0  0
    5.1527    0.2113    0.0000 O   0  0  0  0  0  0  0  0  0  0  0  0
  1  2  1  0  0  0  0
  2  3  1  0  0  0  0
  3  4  1  0  0  0  0
  4  5  1  0  0  0  0
  1  5  1  0  0  0  0
  3  6  1  1  0  0  0
  6  7  1  0  0  0  0
  8  9  1  0  0  0  0
  8 10  1  0  0  0  0
 10 11  2  0  0  0  0
  9 12  2  0  0  0  0
 12 11  1  0  0  0  0
 12 13  1  0  0  0  0
 13 14  2  0  0  0  0
 14 15  1  0  0  0  0
 15 16  2  0  0  0  0
 16  9  1  0  0  0  0
 13 17  1  0  0  0  0
 17 18  1  0  0  0  0
 18 19  2  0  0  0  0
 19 11  1  0  0  0  0
 19 20  1  0  0  0  0
 17 21  1  0  0  0  0
  5  8  1  1  0  0  0
  1 23  1  6  0  0  0
  2 22  1  6  0  0  0
M  END
>  <Mol_ID> (62)
1451

>  <Formula> (62)
C13H16N6O4

>  <MolWeight> (62)
320.30394

>  <Cat> (62)
S1117

>  <Name> (62)
Triciribine

>  <Synonyms> (62)
N/A

>  <Target> (62)
Akt

>  <Form> (62)
Free Base

>  <CAS> (62)
35943-35-2

>  <URL> (62)
http://www.selleckchem.com/products/Triciribine.html

$$$$
Emtricitabine.cdx
csChFnd80/01042310162D

 16 17  0  0  0  0  0  0  0  0999 V2000
    1.2082    3.4951    0.0000 N   0  0  0  0  0  0  0  0  0  0  0  0
    1.2082    2.0951    0.0000 C   0  0  0  0  0  0  0  0  0  0  0  0
    2.4207    1.3951    0.0000 C   0  0  0  0  0  0  0  0  0  0  0  0
    3.6331    2.0951    0.0000 C   0  0  0  0  0  0  0  0  0  0  0  0
    3.6331    3.4951    0.0000 N   0  0  0  0  0  0  0  0  0  0  0  0
    2.4207    4.1951    0.0000 C   0  0  0  0  0  0  0  0  0  0  0  0
    2.4207    5.5903    0.0000 O   0  0  0  0  0  0  0  0  0  0  0  0
    2.4207    0.0000    0.0000 F   0  0  0  0  0  0  0  0  0  0  0  0
    0.0000    1.3976    0.0000 N   0  0  0  0  0  0  0  0  0  0  0  0
    4.8413    4.1927    0.0000 C   0  0  1  0  0  0  0  0  0  0  0  0
    6.1203    3.6233    0.0000 O   0  0  0  0  0  0  0  0  0  0  0  0
    7.0571    4.6637    0.0000 C   0  0  2  0  0  0  0  0  0  0  0  0
    6.3571    5.8761    0.0000 S   0  0  0  0  0  0  0  0  0  0  0  0
    4.9877    5.5850    0.0000 C   0  0  0  0  0  0  0  0  0  0  0  0
    8.4446    4.5179    0.0000 C   0  0  0  0  0  0  0  0  0  0  0  0
    9.2646    5.6465    0.0000 O   0  0  0  0  0  0  0  0  0  0  0  0
  1  2  2  0  0  0  0
  2  3  1  0  0  0  0
  3  4  2  0  0  0  0
  4  5  1  0  0  0  0
  5  6  1  0  0  0  0
  6  1  1  0  0  0  0
  6  7  2  0  0  0  0
  3  8  1  0  0  0  0
  2  9  1  0  0  0  0
 10  5  1  6  0  0  0
 10 11  1  0  0  0  0
 11 12  1  0  0  0  0
 12 13  1  0  0  0  0
 13 14  1  0  0  0  0
 14 10  1  0  0  0  0
 12 15  1  6  0  0  0
 15 16  1  0  0  0  0
M  END
>  <Mol_ID> (63)
1457

>  <Formula> (63)
C8H10FN3O3S

>  <MolWeight> (63)
247.2467032

>  <Cat> (63)
S1704

>  <Name> (63)
Emtricitabine

>  <Synonyms> (63)
Atripla

>  <Target> (63)
Reverse Transcriptase

>  <Form> (63)
Free Base

>  <CAS> (63)
143491-57-0

>  <URL> (63)
http://www.selleckchem.com/products/Emtricitabine.html

$$$$
Idoxuridine.cdx
csChFnd80/01042310162D

 17 18  0  0  0  0  0  0  0  0999 V2000
    1.6951    6.7782    0.0000 C   0  0  0  0  0  0  0  0  0  0  0  0
    1.6951    5.3782    0.0000 C   0  0  0  0  0  0  0  0  0  0  0  0
    2.9075    4.6782    0.0000 N   0  0  0  0  0  0  0  0  0  0  0  0
    4.1200    5.3782    0.0000 C   0  0  0  0  0  0  0  0  0  0  0  0
    4.1200    6.7782    0.0000 N   0  0  0  0  0  0  0  0  0  0  0  0
    2.9075    7.4782    0.0000 C   0  0  0  0  0  0  0  0  0  0  0  0
    0.4869    7.4758    0.0000 I   0  0  0  0  0  0  0  0  0  0  0  0
    2.9075    8.8734    0.0000 O   0  0  0  0  0  0  0  0  0  0  0  0
    5.3282    4.6806    0.0000 O   0  0  0  0  0  0  0  0  0  0  0  0
    2.9075    3.2831    0.0000 C   0  0  2  0  0  0  0  0  0  0  0  0
    1.7749    2.4602    0.0000 O   0  0  0  0  0  0  0  0  0  0  0  0
    2.2075    1.1287    0.0000 C   0  0  1  0  0  0  0  0  0  0  0  0
    3.6075    1.1287    0.0000 C   0  0  2  0  0  0  0  0  0  0  0  0
    4.0402    2.4602    0.0000 C   0  0  0  0  0  0  0  0  0  0  0  0
    1.3875    0.0000    0.0000 C   0  0  0  0  0  0  0  0  0  0  0  0
    0.0000    0.1458    0.0000 O   0  0  0  0  0  0  0  0  0  0  0  0
    4.4276    0.0000    0.0000 O   0  0  0  0  0  0  0  0  0  0  0  0
  1  2  2  0  0  0  0
  2  3  1  0  0  0  0
  3  4  1  0  0  0  0
  4  5  1  0  0  0  0
  5  6  1  0  0  0  0
  6  1  1  0  0  0  0
  1  7  1  0  0  0  0
  6  8  2  0  0  0  0
  4  9  2  0  0  0  0
 10 11  1  0  0  0  0
 11 12  1  0  0  0  0
 12 13  1  0  0  0  0
 13 14  1  0  0  0  0
 14 10  1  0  0  0  0
 12 15  1  1  0  0  0
 15 16  1  0  0  0  0
 13 17  1  6  0  0  0
 10  3  1  1  0  0  0
M  END
>  <Mol_ID> (64)
1458

>  <Formula> (64)
C9H11IN2O5

>  <MolWeight> (64)
354.09851

>  <Cat> (64)
S1883

>  <Name> (64)
Idoxuridin

>  <Synonyms> (64)
N/A

>  <Target> (64)
Antifection

>  <Form> (64)
Free Base

>  <CAS> (64)
54-42-2

>  <URL> (64)
http://www.selleckchem.com/products/idoxuridine.html

$$$$
Sofosbuvir(PSI-7977).cdx
csChFnd80/01042310162D

 36 38  0  0  0  0  0  0  0  0999 V2000
   10.9195    4.7638    0.0000 C   0  0  2  0  0  0  0  0  0  0  0  0
   11.2263    3.3978    0.0000 C   0  0  2  0  0  0  0  0  0  0  0  0
   12.6202    3.2674    0.0000 C   0  0  1  0  0  0  0  0  0  0  0  0
   13.1749    4.5529    0.0000 C   0  0  1  0  0  0  0  0  0  0  0  0
   12.1238    5.4776    0.0000 O   0  0  0  0  0  0  0  0  0  0  0  0
    9.6341    5.3185    0.0000 C   0  0  0  0  0  0  0  0  0  0  0  0
    8.5110    4.4826    0.0000 O   0  0  0  0  0  0  0  0  0  0  0  0
    7.2256    5.0373    0.0000 P   0  0  1  0  0  0  0  0  0  0  0  0
    6.1025    4.2015    0.0000 N   0  0  0  0  0  0  0  0  0  0  0  0
    7.2256    3.6373    0.0000 O   0  0  0  0  0  0  0  0  0  0  0  0
    4.8170    4.7562    0.0000 C   0  0  2  0  0  0  0  0  0  0  0  0
    3.6939    3.9203    0.0000 C   0  0  0  0  0  0  0  0  0  0  0  0
    2.4085    4.4750    0.0000 O   0  0  0  0  0  0  0  0  0  0  0  0
    4.6547    6.1467    0.0000 C   0  0  0  0  0  0  0  0  0  0  0  0
    1.2854    3.6391    0.0000 C   0  0  0  0  0  0  0  0  0  0  0  0
    3.8563    2.5297    0.0000 O   0  0  0  0  0  0  0  0  0  0  0  0
    0.0000    4.1939    0.0000 C   0  0  0  0  0  0  0  0  0  0  0  0
    1.4477    2.2486    0.0000 C   0  0  0  0  0  0  0  0  0  0  0  0
    7.9256    2.4249    0.0000 C   0  0  0  0  0  0  0  0  0  0  0  0
    7.2256    1.2124    0.0000 C   0  0  0  0  0  0  0  0  0  0  0  0
    7.9256    0.0000    0.0000 C   0  0  0  0  0  0  0  0  0  0  0  0
    9.3256    0.0000    0.0000 C   0  0  0  0  0  0  0  0  0  0  0  0
   10.0256    1.2124    0.0000 C   0  0  0  0  0  0  0  0  0  0  0  0
    9.3256    2.4249    0.0000 C   0  0  0  0  0  0  0  0  0  0  0  0
   10.8639    2.0455    0.0000 O   0  0  0  0  0  0  0  0  0  0  0  0
   14.1648    5.5428    0.0000 N   0  0  0  0  0  0  0  0  0  0  0  0
   15.5171    5.1805    0.0000 C   0  0  0  0  0  0  0  0  0  0  0  0
   16.5071    6.1704    0.0000 N   0  0  0  0  0  0  0  0  0  0  0  0
   16.1447    7.5227    0.0000 C   0  0  0  0  0  0  0  0  0  0  0  0
   14.7924    7.8851    0.0000 C   0  0  0  0  0  0  0  0  0  0  0  0
   13.8025    6.8951    0.0000 C   0  0  0  0  0  0  0  0  0  0  0  0
   15.8795    3.8282    0.0000 O   0  0  0  0  0  0  0  0  0  0  0  0
   17.1347    8.5127    0.0000 O   0  0  0  0  0  0  0  0  0  0  0  0
   13.8326    2.5674    0.0000 C   0  0  0  0  0  0  0  0  0  0  0  0
   12.6202    1.8674    0.0000 F   0  0  0  0  0  0  0  0  0  0  0  0
    7.0638    6.4230    0.0000 O   0  0  0  0  0  0  0  0  0  0  0  0
  1  2  1  0  0  0  0
  2  3  1  0  0  0  0
  3  4  1  0  0  0  0
  4  5  1  0  0  0  0
  5  1  1  0  0  0  0
  1  6  1  1  0  0  0
  6  7  1  0  0  0  0
  7  8  1  0  0  0  0
  8  9  1  0  0  0  0
  8 10  1  1  0  0  0
  9 11  1  0  0  0  0
 11 12  1  0  0  0  0
 12 13  1  0  0  0  0
 11 14  1  6  0  0  0
 13 15  1  0  0  0  0
 12 16  2  0  0  0  0
 15 17  1  0  0  0  0
 15 18  1  0  0  0  0
 10 19  1  0  0  0  0
 19 20  2  0  0  0  0
 20 21  1  0  0  0  0
 21 22  2  0  0  0  0
 22 23  1  0  0  0  0
 23 24  2  0  0  0  0
 24 19  1  0  0  0  0
  2 25  1  6  0  0  0
  4 26  1  1  0  0  0
 26 27  1  0  0  0  0
 27 28  1  0  0  0  0
 28 29  1  0  0  0  0
 29 30  1  0  0  0  0
 30 31  2  0  0  0  0
 31 26  1  0  0  0  0
 27 32  2  0  0  0  0
 29 33  2  0  0  0  0
  3 34  1  1  0  0  0
  3 35  1  6  0  0  0
  8 36  2  0  0  0  0
M  END
>  <Mol_ID> (65)
1474

>  <Formula> (65)
C22H29FN3O9P

>  <MolWeight> (65)
529.4525242

>  <Cat> (65)
S2794

>  <Name> (65)
Sofosbuvir(PSI-7977)

>  <Synonyms> (65)
N/A

>  <Target> (65)
DNA/RNA Synthesis

>  <Form> (65)
Free Base

>  <CAS> (65)
1190307-88-0

>  <URL> (65)
http://www.selleckchem.com/products/psi-7977-gs-7977.html

$$$$
6-Mercaptopurine monohydrate.cdx
csChFnd80/01042310162D

 11 11  0  0  0  0  0  0  0  0999 V2000
    0.0000    2.1000    0.0000 N   0  0  0  0  0  0  0  0  0  0  0  0
    0.0000    0.7000    0.0000 C   0  0  0  0  0  0  0  0  0  0  0  0
    1.2124    0.0000    0.0000 N   0  0  0  0  0  0  0  0  0  0  0  0
    2.4249    0.7000    0.0000 C   0  0  0  0  0  0  0  0  0  0  0  0
    2.4249    2.1000    0.0000 C   0  0  0  0  0  0  0  0  0  0  0  0
    1.2124    2.8000    0.0000 C   0  0  0  0  0  0  0  0  0  0  0  0
    4.8497    0.7000    0.0000 N   0  0  0  0  0  0  0  0  0  0  0  0
    4.8497    2.1000    0.0000 C   0  0  0  0  0  0  0  0  0  0  0  0
    3.6373    2.8000    0.0000 N   0  0  0  0  0  0  0  0  0  0  0  0
    1.2124    4.2000    0.0000 S   0  0  0  0  0  0  0  0  0  0  0  0
    6.4187    1.7570    0.0000 O   0  0  0  0  0  0  0  0  0  0  0  0
  1  2  2  0  0  0  0
  2  3  1  0  0  0  0
  3  4  1  0  0  0  0
  4  5  2  0  0  0  0
  5  6  1  0  0  0  0
  6  1  1  0  0  0  0
  7  8  2  0  0  0  0
  8  9  1  0  0  0  0
  9  5  1  0  0  0  0
  4  7  1  0  0  0  0
  6 10  2  0  0  0  0
M  END
>  <Mol_ID> (66)
1546

>  <Formula> (66)
C5H6N4OS

>  <MolWeight> (66)
170.19234

>  <Cat> (66)
S4504

>  <Name> (66)
6-Mercaptopurine (6-MP) Monohydrate

>  <Synonyms> (66)
N/A

>  <Target> (66)
DNA/RNA Synthesis

>  <Form> (66)
Monohydrate

>  <CAS> (66)
6112-76-1

>  <URL> (66)
http://www.selleckchem.com/products/6-mercaptopurine-6-mp-monohydrate.html

$$$$
6-Benzylaminopurine.cdx
csChFnd80/01042310162D

 17 19  0  0  0  0  0  0  0  0999 V2000
    0.0000    4.2000    0.0000 C   0  0  0  0  0  0  0  0  0  0  0  0
    0.0000    2.8000    0.0000 C   0  0  0  0  0  0  0  0  0  0  0  0
    1.2124    2.1000    0.0000 C   0  0  0  0  0  0  0  0  0  0  0  0
    2.4249    2.8000    0.0000 C   0  0  0  0  0  0  0  0  0  0  0  0
    2.4249    4.2000    0.0000 C   0  0  0  0  0  0  0  0  0  0  0  0
    1.2124    4.9000    0.0000 C   0  0  0  0  0  0  0  0  0  0  0  0
    3.6373    4.9000    0.0000 C   0  0  0  0  0  0  0  0  0  0  0  0
    4.8497    4.2000    0.0000 N   0  0  0  0  0  0  0  0  0  0  0  0
    4.8497    2.8000    0.0000 C   0  0  0  0  0  0  0  0  0  0  0  0
    3.6373    2.1000    0.0000 N   0  0  0  0  0  0  0  0  0  0  0  0
    3.6373    0.7000    0.0000 C   0  0  0  0  0  0  0  0  0  0  0  0
    4.8497    0.0000    0.0000 N   0  0  0  0  0  0  0  0  0  0  0  0
    6.0622    0.7000    0.0000 C   0  0  0  0  0  0  0  0  0  0  0  0
    6.0622    2.1000    0.0000 C   0  0  0  0  0  0  0  0  0  0  0  0
    7.3937    0.2674    0.0000 N   0  0  0  0  0  0  0  0  0  0  0  0
    8.2166    1.4000    0.0000 C   0  0  0  0  0  0  0  0  0  0  0  0
    7.3937    2.5326    0.0000 N   0  0  0  0  0  0  0  0  0  0  0  0
  1  2  2  0  0  0  0
  2  3  1  0  0  0  0
  3  4  2  0  0  0  0
  4  5  1  0  0  0  0
  5  6  2  0  0  0  0
  6  1  1  0  0  0  0
  5  7  1  0  0  0  0
  7  8  1  0  0  0  0
  8  9  1  0  0  0  0
  9 10  2  0  0  0  0
 10 11  1  0  0  0  0
 11 12  2  0  0  0  0
 12 13  1  0  0  0  0
 13 14  2  0  0  0  0
 14  9  1  0  0  0  0
 13 15  1  0  0  0  0
 15 16  2  0  0  0  0
 16 17  1  0  0  0  0
 17 14  1  0  0  0  0
M  END
>  <Mol_ID> (67)
1556

>  <Formula> (67)
C12H11N5

>  <MolWeight> (67)
225.24924

>  <Cat> (67)
S4511

>  <Name> (67)
6-Benzylaminopurine

>  <Synonyms> (67)
N/A

>  <Target> (67)
Others

>  <Form> (67)
Free Base

>  <CAS> (67)
1214-39-7

>  <URL> (67)
http://www.selleckchem.com/products/6-benzylaminopurine.html

$$$$
s4515 Ademetionine Ademetionine disulfate tosylate.cdx
csChFnd80/01042310162D

 48 48  0  0  0  0  0  0  0  0999 V2000
   13.6746    7.3871    0.0000 C   0  0  0  0  0  0  0  0  0  0  0  0
   13.6746    5.9870    0.0000 N   0  0  0  0  0  0  0  0  0  0  0  0
   14.8871    5.2870    0.0000 C   0  0  0  0  0  0  0  0  0  0  0  0
   16.0996    5.9870    0.0000 N   0  0  0  0  0  0  0  0  0  0  0  0
   16.0996    7.3871    0.0000 C   0  0  0  0  0  0  0  0  0  0  0  0
   14.8871    8.0871    0.0000 C   0  0  0  0  0  0  0  0  0  0  0  0
   14.5959    9.4566    0.0000 N   0  0  0  0  0  0  0  0  0  0  0  0
   13.2036    9.6029    0.0000 C   0  0  0  0  0  0  0  0  0  0  0  0
   12.6341    8.3239    0.0000 N   0  0  0  0  0  0  0  0  0  0  0  0
   11.2693    8.0339    0.0000 C   0  0  2  0  0  0  0  0  0  0  0  0
   10.2289    8.9707    0.0000 O   0  0  0  0  0  0  0  0  0  0  0  0
    9.0164    8.2707    0.0000 C   0  0  1  0  0  0  0  0  0  0  0  0
    9.3074    6.9013    0.0000 C   0  0  2  0  0  0  0  0  0  0  0  0
   10.6998    6.7548    0.0000 C   0  0  1  0  0  0  0  0  0  0  0  0
    7.7418    8.8384    0.0000 C   0  0  0  0  0  0  0  0  0  0  0  0
    6.5716    8.0784    0.0000 S   0  3  3  0  0  0  0  0  0  0  0  0
    6.6446    6.6851    0.0000 C   0  0  0  0  0  0  0  0  0  0  0  0
    5.3284    8.7119    0.0000 C   0  0  0  0  0  0  0  0  0  0  0  0
    4.1582    7.9520    0.0000 C   0  0  0  0  0  0  0  0  0  0  0  0
    2.9151    8.5854    0.0000 C   0  0  2  0  0  0  0  0  0  0  0  0
    2.8420    9.9788    0.0000 N   0  0  0  0  0  0  0  0  0  0  0  0
    1.7449    7.8255    0.0000 C   0  0  0  0  0  0  0  0  0  0  0  0
    1.8179    6.4321    0.0000 O   0  0  0  0  0  0  0  0  0  0  0  0
    0.5017    8.4589    0.0000 O   0  5  0  0  0  0  0  0  0  0  0  0
    8.3737    5.8644    0.0000 O   0  0  0  0  0  0  0  0  0  0  0  0
   11.3974    5.5465    0.0000 O   0  0  0  0  0  0  0  0  0  0  0  0
   17.3079    8.0847    0.0000 N   0  0  0  0  0  0  0  0  0  0  0  0
    3.5648    2.0563    0.0000 C   0  0  0  0  0  0  0  0  0  0  0  0
    3.5648    0.7171    0.0000 C   0  0  0  0  0  0  0  0  0  0  0  0
    2.3878    2.7259    0.0000 C   0  0  0  0  0  0  0  0  0  0  0  0
    4.7823    2.7666    0.0000 S   0  0  0  0  0  0  0  0  0  0  0  0
    2.3878    0.0404    0.0000 C   0  0  0  0  0  0  0  0  0  0  0  0
    1.2175    2.0563    0.0000 C   0  0  0  0  0  0  0  0  0  0  0  0
    5.9459    3.4362    0.0000 O   0  0  0  0  0  0  0  0  0  0  0  0
    4.1060    3.9436    0.0000 O   0  0  0  0  0  0  0  0  0  0  0  0
    5.4521    1.5489    0.0000 O   0  0  0  0  0  0  0  0  0  0  0  0
    1.2175    0.7171    0.0000 C   0  0  0  0  0  0  0  0  0  0  0  0
    0.0000    0.0000    0.0000 C   0  0  0  0  0  0  0  0  0  0  0  0
   10.3809    1.7415    0.0000 S   0  0  0  0  0  0  0  0  0  0  0  0
    8.9198    1.7415    0.0000 O   0  0  0  0  0  0  0  0  0  0  0  0
   11.8081    1.7415    0.0000 O   0  0  0  0  0  0  0  0  0  0  0  0
   10.3809    0.3142    0.0000 O   0  0  0  0  0  0  0  0  0  0  0  0
   10.3809    3.2027    0.0000 O   0  0  0  0  0  0  0  0  0  0  0  0
   16.5294    1.6484    0.0000 S   0  0  0  0  0  0  0  0  0  0  0  0
   15.0816    1.6484    0.0000 O   0  0  0  0  0  0  0  0  0  0  0  0
   17.9295    1.6484    0.0000 O   0  0  0  0  0  0  0  0  0  0  0  0
   16.5294    3.0958    0.0000 O   0  0  0  0  0  0  0  0  0  0  0  0
   16.5294    0.2481    0.0000 O   0  0  0  0  0  0  0  0  0  0  0  0
  1  2  2  0  0  0  0
  2  3  1  0  0  0  0
  3  4  2  0  0  0  0
  4  5  1  0  0  0  0
  5  6  2  0  0  0  0
  6  1  1  0  0  0  0
  6  7  1  0  0  0  0
  7  8  2  0  0  0  0
  8  9  1  0  0  0  0
  9  1  1  0  0  0  0
 10  9  1  1  0  0  0
 10 11  1  0  0  0  0
 11 12  1  0  0  0  0
 12 13  1  0  0  0  0
 13 14  1  0  0  0  0
 14 10  1  0  0  0  0
 12 15  1  1  0  0  0
 15 16  1  0  0  0  0
 16 17  1  0  0  0  0
 16 18  1  0  0  0  0
 18 19  1  0  0  0  0
 19 20  1  0  0  0  0
 20 21  1  1  0  0  0
 20 22  1  0  0  0  0
 22 23  2  0  0  0  0
 22 24  1  0  0  0  0
 13 25  1  6  0  0  0
 14 26  1  6  0  0  0
  5 27  1  0  0  0  0
 28 29  1  0  0  0  0
 28 30  2  0  0  0  0
 28 31  1  0  0  0  0
 29 32  2  0  0  0  0
 30 33  1  0  0  0  0
 31 34  1  0  0  0  0
 31 35  2  0  0  0  0
 31 36  2  0  0  0  0
 32 37  1  0  0  0  0
 33 37  2  0  0  0  0
 37 38  1  0  0  0  0
 39 40  1  0  0  0  0
 39 41  1  0  0  0  0
 39 42  2  0  0  0  0
 39 43  2  0  0  0  0
 44 45  1  0  0  0  0
 44 46  1  0  0  0  0
 44 47  2  0  0  0  0
 44 48  2  0  0  0  0
M  END
>  <Mol_ID> (68)
1660

>  <Formula> (68)
C22H34N6O16S4

>  <MolWeight> (68)
766.79596

>  <Cat> (68)
S4515

>  <Name> (68)
Ademetionine disulfate tosylate 

>  <Synonyms> (68)
N/A

>  <Target> (68)
Others

>  <Form> (68)
Disulfate tosylate

>  <CAS> (68)
97540-22-2

>  <URL> (68)
http://www.selleckchem.com/products/ademetionine-disulfate-tosylate.html

$$$$
S4685 Efavirenz.cdx
csChFnd80/01042310162D

 21 23  0  0  0  0  0  0  0  0999 V2000
    4.8497    4.5961    0.0000 C   0  0  2  0  0  0  0  0  0  0  0  0
    3.9498    3.5237    0.0000 C   0  0  0  0  0  0  0  0  0  0  0  0
    3.6373    5.2961    0.0000 C   0  0  0  0  0  0  0  0  0  0  0  0
    6.0622    6.6961    0.0000 C   0  0  0  0  0  0  0  0  0  0  0  0
    5.7496    3.5237    0.0000 C   0  0  0  0  0  0  0  0  0  0  0  0
    6.0622    5.2961    0.0000 O   0  0  0  0  0  0  0  0  0  0  0  0
    4.8497    7.3961    0.0000 N   0  0  0  0  0  0  0  0  0  0  0  0
    3.6373    6.6961    0.0000 C   0  0  0  0  0  0  0  0  0  0  0  0
    3.0499    2.4512    0.0000 C   0  0  0  0  0  0  0  0  0  0  0  0
    2.1500    1.3787    0.0000 C   0  0  0  0  0  0  0  0  0  0  0  0
    2.4249    4.5961    0.0000 C   0  0  0  0  0  0  0  0  0  0  0  0
    1.9069    0.0000    0.0000 C   0  0  0  0  0  0  0  0  0  0  0  0
    0.8345    0.8999    0.0000 C   0  0  0  0  0  0  0  0  0  0  0  0
    7.2746    7.3961    0.0000 O   0  0  0  0  0  0  0  0  0  0  0  0
    2.4249    7.3961    0.0000 C   0  0  0  0  0  0  0  0  0  0  0  0
    1.2124    5.2961    0.0000 C   0  0  0  0  0  0  0  0  0  0  0  0
    1.2124    6.6961    0.0000 C   0  0  0  0  0  0  0  0  0  0  0  0
    0.0000    4.5961    0.0000 Cl  0  0  0  0  0  0  0  0  0  0  0  0
    4.6772    2.6238    0.0000 F   0  0  0  0  0  0  0  0  0  0  0  0
    6.6495    2.4512    0.0000 F   0  0  0  0  0  0  0  0  0  0  0  0
    6.8221    4.4236    0.0000 F   0  0  0  0  0  0  0  0  0  0  0  0
  1  5  1  6  0  0  0
  6  1  1  0  0  0  0
  1  2  1  1  0  0  0
  3  1  1  0  0  0  0
  9  2  3  0  0  0  0
  8  3  2  0  0  0  0
 11  3  1  0  0  0  0
  4  6  1  0  0  0  0
  7  4  1  0  0  0  0
 14  4  2  0  0  0  0
  5 19  1  0  0  0  0
  5 20  1  0  0  0  0
  5 21  1  0  0  0  0
  8  7  1  0  0  0  0
 15  8  1  0  0  0  0
 10  9  1  0  0  0  0
 12 10  1  0  0  0  0
 13 10  1  0  0  0  0
 16 11  2  0  0  0  0
 12 13  1  0  0  0  0
 15 17  2  0  0  0  0
 17 16  1  0  0  0  0
 18 16  1  0  0  0  0
M  END
>  <Mol_ID> (69)
1666

>  <Formula> (69)
C14H9ClF3NO2

>  <MolWeight> (69)
315.6749696

>  <Cat> (69)
S4685

>  <Name> (69)
Efavirenz

>  <Synonyms> (69)
Sustiva, Stocrin, DMP-266, DMP 266

>  <Target> (69)
Reverse Transcriptase

>  <Form> (69)
Free Base

>  <CAS> (69)
154598-52-4

>  <URL> (69)
http://www.selleckchem.com/products/efavirenz.html

$$$$
Stavudine.cdx
csChFnd80/01042310162D

 16 17  0  0  0  0  0  0  0  0999 V2000
    6.1480    3.6088    0.0000 O   0  0  0  0  0  0  0  0  0  0  0  0
    4.8672    4.1918    0.0000 C   0  0  2  0  0  0  0  0  0  0  0  0
    5.0251    5.5828    0.0000 C   0  0  0  0  0  0  0  0  0  0  0  0
    6.3999    5.8659    0.0000 C   0  0  0  0  0  0  0  0  0  0  0  0
    7.0939    4.6458    0.0000 C   0  0  1  0  0  0  0  0  0  0  0  0
    8.4840    4.4907    0.0000 C   0  0  0  0  0  0  0  0  0  0  0  0
    9.3134    5.6170    0.0000 O   0  0  0  0  0  0  0  0  0  0  0  0
    3.6559    3.4924    0.0000 N   0  0  0  0  0  0  0  0  0  0  0  0
    2.4471    4.2059    0.0000 C   0  0  0  0  0  0  0  0  0  0  0  0
    1.2226    3.5119    0.0000 N   0  0  0  0  0  0  0  0  0  0  0  0
    1.2113    2.1122    0.0000 C   0  0  0  0  0  0  0  0  0  0  0  0
    2.4201    1.3987    0.0000 C   0  0  0  0  0  0  0  0  0  0  0  0
    3.6447    2.0927    0.0000 C   0  0  0  0  0  0  0  0  0  0  0  0
    2.4471    5.6046    0.0000 O   0  0  0  0  0  0  0  0  0  0  0  0
    0.0000    1.4128    0.0000 O   0  0  0  0  0  0  0  0  0  0  0  0
    2.4201    0.0000    0.0000 C   0  0  0  0  0  0  0  0  0  0  0  0
  1  2  1  0  0  0  0
  2  3  1  0  0  0  0
  3  4  2  0  0  0  0
  4  5  1  0  0  0  0
  5  1  1  0  0  0  0
  5  6  1  1  0  0  0
  6  7  1  0  0  0  0
  2  8  1  1  0  0  0
  8  9  1  0  0  0  0
  9 10  1  0  0  0  0
 10 11  1  0  0  0  0
 11 12  1  0  0  0  0
 12 13  2  0  0  0  0
 13  8  1  0  0  0  0
  9 14  2  0  0  0  0
 11 15  2  0  0  0  0
 12 16  1  0  0  0  0
M  END
>  <Mol_ID> (70)
1725

>  <Formula> (70)
C10H12N2O4

>  <MolWeight> (70)
224.21328

>  <Cat> (70)
S1398

>  <Name> (70)
Stavudine

>  <Synonyms> (70)
BMY-27857, Sanilvudine, NSC 163661

>  <Target> (70)
Reverse Transcriptase

>  <Form> (70)
free base

>  <CAS> (70)
3056-17-5

>  <URL> (70)
http://selleckchem.com/products/Stavudine.html

$$$$
S3610 Cordycepin.cdx
csChFnd80/01042310162D

 18 20  0  0  0  0  0  0  0  0999 V2000
    2.8869    5.3861    0.0000 N   0  0  0  0  0  0  0  0  0  0  0  0
    4.2156    5.8220    0.0000 C   0  0  0  0  0  0  0  0  0  0  0  0
    2.4576    4.0535    0.0000 C   0  0  2  0  0  0  0  0  0  0  0  0
    2.0612    6.5167    0.0000 C   0  0  0  0  0  0  0  0  0  0  0  0
    4.2156    7.2220    0.0000 C   0  0  0  0  0  0  0  0  0  0  0  0
    5.4293    5.1212    0.0000 N   0  0  0  0  0  0  0  0  0  0  0  0
    1.1289    3.6176    0.0000 O   0  0  0  0  0  0  0  0  0  0  0  0
    3.2832    2.9247    0.0000 C   0  0  1  0  0  0  0  0  0  0  0  0
    2.8813    7.6513    0.0000 N   0  0  0  0  0  0  0  0  0  0  0  0
    5.4267    7.9212    0.0000 C   0  0  0  0  0  0  0  0  0  0  0  0
    6.6450    5.8231    0.0000 C   0  0  0  0  0  0  0  0  0  0  0  0
    1.1289    2.2177    0.0000 C   0  0  1  0  0  0  0  0  0  0  0  0
    2.4631    1.7883    0.0000 C   0  0  0  0  0  0  0  0  0  0  0  0
    4.6832    2.9247    0.0000 O   0  0  0  0  0  0  0  0  0  0  0  0
    6.6360    7.2231    0.0000 N   0  0  0  0  0  0  0  0  0  0  0  0
    5.4267    9.3250    0.0000 N   0  0  0  0  0  0  0  0  0  0  0  0
    0.0000    1.3920    0.0000 C   0  0  0  0  0  0  0  0  0  0  0  0
    0.1498    0.0000    0.0000 O   0  0  0  0  0  0  0  0  0  0  0  0
  1  2  1  0  0  0  0
  3  1  1  1  0  0  0
  1  4  1  0  0  0  0
  2  5  2  0  0  0  0
  2  6  1  0  0  0  0
  3  7  1  0  0  0  0
  3  8  1  0  0  0  0
  4  9  2  0  0  0  0
  5 10  1  0  0  0  0
  5  9  1  0  0  0  0
  6 11  2  0  0  0  0
  7 12  1  0  0  0  0
  8 13  1  0  0  0  0
  8 14  1  6  0  0  0
 10 15  2  0  0  0  0
 10 16  1  0  0  0  0
 11 15  1  0  0  0  0
 12 17  1  1  0  0  0
 12 13  1  0  0  0  0
 17 18  1  0  0  0  0
M  END
>  <Mol_ID> (71)
1751

>  <Formula> (71)
C10H13N5O3

>  <MolWeight> (71)
251.24192

>  <Cat> (71)
S3610

>  <Name> (71)
Cordycepin

>  <Synonyms> (71)
N/A

>  <Target> (71)
Others

>  <Form> (71)
free base

>  <CAS> (71)
73-03-0

>  <URL> (71)
http://www.selleckchem.com/products/cordycepin.html

$$$$
S3702 Dihydrothymine.cdx
csChFnd80/01042310162D

  9  9  0  0  0  0  0  0  0  0999 V2000
    1.2234    0.7138    0.0000 C   0  0  0  0  0  0  0  0  0  0  0  0
    1.2194    2.1061    0.0000 C   0  0  3  0  0  0  0  0  0  0  0  0
    2.4111    0.0184    0.0000 N   0  0  0  0  0  0  0  0  0  0  0  0
    0.0000    0.0255    0.0000 O   0  0  0  0  0  0  0  0  0  0  0  0
    2.4427    2.7943    0.0000 C   0  0  0  0  0  0  0  0  0  0  0  0
    0.0102    2.8117    0.0000 C   0  0  0  0  0  0  0  0  0  0  0  0
    3.6198    0.6935    0.0000 C   0  0  0  0  0  0  0  0  0  0  0  0
    3.6327    2.0945    0.0000 N   0  0  0  0  0  0  0  0  0  0  0  0
    4.8467    0.0000    0.0000 O   0  0  0  0  0  0  0  0  0  0  0  0
  1  2  1  0  0  0  0
  1  3  1  0  0  0  0
  1  4  2  0  0  0  0
  2  5  1  0  0  0  0
  2  6  1  0  0  0  0
  3  7  1  0  0  0  0
  5  8  1  0  0  0  0
  7  9  2  0  0  0  0
  7  8  1  0  0  0  0
M  END
>  <Mol_ID> (72)
1758

>  <Formula> (72)
C5H8N2O2

>  <MolWeight> (72)
128.12922

>  <Cat> (72)
S3702

>  <Name> (72)
Dihydrothymine

>  <Synonyms> (72)
N/A

>  <Target> (72)
Others

>  <Form> (72)
free base

>  <CAS> (72)
696-04-8

>  <URL> (72)
http://www.selleckchem.com/products/dihydrothymine.html

$$$$
S3693 2,6-Dihydroxypurine.cdx
csChFnd80/01042310162D

 11 12  0  0  0  0  0  0  0  0999 V2000
    3.6373    0.7000    0.0000 C   0  0  0  0  0  0  0  0  0  0  0  0
    3.6373    2.1000    0.0000 C   0  0  0  0  0  0  0  0  0  0  0  0
    2.4249    0.0000    0.0000 N   0  0  0  0  0  0  0  0  0  0  0  0
    4.9688    0.2674    0.0000 N   0  0  0  0  0  0  0  0  0  0  0  0
    2.4249    2.8000    0.0000 C   0  0  0  0  0  0  0  0  0  0  0  0
    4.9688    2.5326    0.0000 N   0  0  0  0  0  0  0  0  0  0  0  0
    1.2124    0.7000    0.0000 C   0  0  0  0  0  0  0  0  0  0  0  0
    5.7917    1.4000    0.0000 C   0  0  0  0  0  0  0  0  0  0  0  0
    1.2124    2.1000    0.0000 N   0  0  0  0  0  0  0  0  0  0  0  0
    2.4249    4.2000    0.0000 O   0  0  0  0  0  0  0  0  0  0  0  0
    0.0000    0.0000    0.0000 O   0  0  0  0  0  0  0  0  0  0  0  0
  1  2  2  0  0  0  0
  1  3  1  0  0  0  0
  1  4  1  0  0  0  0
  2  5  1  0  0  0  0
  2  6  1  0  0  0  0
  3  7  1  0  0  0  0
  4  8  2  0  0  0  0
  5  9  1  0  0  0  0
  5 10  2  0  0  0  0
  7 11  2  0  0  0  0
  7  9  1  0  0  0  0
  6  8  1  0  0  0  0
M  END
>  <Mol_ID> (73)
1774

>  <Formula> (73)
C5H4N4O2

>  <MolWeight> (73)
152.11086

>  <Cat> (73)
S3693

>  <Name> (73)
2,6-Dihydroxypurine

>  <Synonyms> (73)
xanthine, Isoxanthine

>  <Target> (73)
Others

>  <Form> (73)
free base

>  <CAS> (73)
69-89-6

>  <URL> (73)
http://www.selleckchem.com/products/2-6-dihydroxypurine.html

$$$$
S3641 Osalmid.cdx
csChFnd80/01042310162D

 17 18  0  0  0  0  0  0  0  0999 V2000
    2.4249    2.1022    0.0000 C   0  0  0  0  0  0  0  0  0  0  0  0
    3.6360    2.8043    0.0000 C   0  0  0  0  0  0  0  0  0  0  0  0
    2.4274    0.7022    0.0000 C   0  0  0  0  0  0  0  0  0  0  0  0
    1.2112    2.8000    0.0000 C   0  0  0  0  0  0  0  0  0  0  0  0
    4.8497    2.1065    0.0000 N   0  0  0  0  0  0  0  0  0  0  0  0
    3.6335    4.2043    0.0000 O   0  0  0  0  0  0  0  0  0  0  0  0
    1.2162    0.0000    0.0000 C   0  0  0  0  0  0  0  0  0  0  0  0
    3.6411    0.0043    0.0000 O   0  0  0  0  0  0  0  0  0  0  0  0
    0.0000    2.0978    0.0000 C   0  0  0  0  0  0  0  0  0  0  0  0
    6.0615    2.8098    0.0000 C   0  0  0  0  0  0  0  0  0  0  0  0
    0.0025    0.6978    0.0000 C   0  0  0  0  0  0  0  0  0  0  0  0
    7.2740    2.1098    0.0000 C   0  0  0  0  0  0  0  0  0  0  0  0
    6.0615    4.2087    0.0000 C   0  0  0  0  0  0  0  0  0  0  0  0
    8.4874    2.8103    0.0000 C   0  0  0  0  0  0  0  0  0  0  0  0
    7.2716    4.9073    0.0000 C   0  0  0  0  0  0  0  0  0  0  0  0
    8.4874    4.2130    0.0000 C   0  0  0  0  0  0  0  0  0  0  0  0
    9.6967    4.9113    0.0000 O   0  0  0  0  0  0  0  0  0  0  0  0
  1  2  1  0  0  0  0
  1  3  2  0  0  0  0
  1  4  1  0  0  0  0
  2  5  1  0  0  0  0
  2  6  2  0  0  0  0
  3  7  1  0  0  0  0
  3  8  1  0  0  0  0
  4  9  2  0  0  0  0
  5 10  1  0  0  0  0
  7 11  2  0  0  0  0
  9 11  1  0  0  0  0
 10 12  1  0  0  0  0
 10 13  2  0  0  0  0
 12 14  2  0  0  0  0
 13 15  1  0  0  0  0
 14 16  1  0  0  0  0
 15 16  2  0  0  0  0
 16 17  1  0  0  0  0
M  END
>  <Mol_ID> (74)
1788

>  <Formula> (74)
C13H11NO3

>  <MolWeight> (74)
229.23134

>  <Cat> (74)
S3641

>  <Name> (74)
Osalmid

>  <Synonyms> (74)
N/A

>  <Target> (74)
ribonucleotide reductase

>  <Form> (74)
free base

>  <CAS> (74)
526-18-1

>  <URL> (74)
http://www.selleckchem.com/products/osalmid.html

$$$$
S3651 4-Amino-5-imidazolecarboxamide.cdx
csChFnd80/01042310162D

  9  9  0  0  0  0  0  0  0  0999 V2000
    2.0885    2.2221    0.0000 C   0  0  0  0  0  0  0  0  0  0  0  0
    1.5051    0.9452    0.0000 C   0  0  0  0  0  0  0  0  0  0  0  0
    1.3908    3.4305    0.0000 C   0  0  0  0  0  0  0  0  0  0  0  0
    3.4761    2.0625    0.0000 N   0  0  0  0  0  0  0  0  0  0  0  0
    2.5383    0.0000    0.0000 N   0  0  0  0  0  0  0  0  0  0  0  0
    0.1379    0.6656    0.0000 N   0  0  0  0  0  0  0  0  0  0  0  0
    0.0000    3.4305    0.0000 N   0  0  0  0  0  0  0  0  0  0  0  0
    2.0908    4.6430    0.0000 O   0  0  0  0  0  0  0  0  0  0  0  0
    3.7565    0.6906    0.0000 C   0  0  0  0  0  0  0  0  0  0  0  0
  1  2  2  0  0  0  0
  1  3  1  0  0  0  0
  1  4  1  0  0  0  0
  2  5  1  0  0  0  0
  2  6  1  0  0  0  0
  3  7  1  0  0  0  0
  3  8  2  0  0  0  0
  4  9  2  0  0  0  0
  5  9  1  0  0  0  0
M  END
>  <Mol_ID> (75)
1792

>  <Formula> (75)
C4H6N4O

>  <MolWeight> (75)
126.11664

>  <Cat> (75)
S3651

>  <Name> (75)
4-Amino-5-imidazolecarboxamide

>  <Synonyms> (75)
N/A

>  <Target> (75)
Others

>  <Form> (75)
free base

>  <CAS> (75)
360-97-4

>  <URL> (75)
http://www.selleckchem.com/products/4-amino-5-imidazolecarboxamide.html

$$$$
S3757 2'-Deoxyinosine.cdx
csChFnd80/01042310162D

 18 20  0  0  0  0  0  0  0  0999 V2000
    3.7417    5.2069    0.0000 N   0  0  0  0  0  0  0  0  0  0  0  0
    2.4196    5.6411    0.0000 C   0  0  0  0  0  0  0  0  0  0  0  0
    4.1650    3.8724    0.0000 C   0  0  2  0  0  0  0  0  0  0  0  0
    4.5849    6.3414    0.0000 C   0  0  0  0  0  0  0  0  0  0  0  0
    2.4255    7.0617    0.0000 C   0  0  0  0  0  0  0  0  0  0  0  0
    1.2145    4.9600    0.0000 N   0  0  0  0  0  0  0  0  0  0  0  0
    3.3473    2.7537    0.0000 O   0  0  0  0  0  0  0  0  0  0  0  0
    5.4872    3.4294    0.0000 C   0  0  0  0  0  0  0  0  0  0  0  0
    3.7670    7.4714    0.0000 N   0  0  0  0  0  0  0  0  0  0  0  0
    1.2054    7.7678    0.0000 C   0  0  0  0  0  0  0  0  0  0  0  0
    0.0000    5.6694    0.0000 C   0  0  0  0  0  0  0  0  0  0  0  0
    4.1623    1.6064    0.0000 C   0  0  1  0  0  0  0  0  0  0  0  0
    5.4829    2.0314    0.0000 C   0  0  1  0  0  0  0  0  0  0  0  0
    0.0163    7.0866    0.0000 N   0  0  0  0  0  0  0  0  0  0  0  0
    1.2054    9.1678    0.0000 O   0  0  0  0  0  0  0  0  0  0  0  0
    3.7178    0.2788    0.0000 C   0  0  0  0  0  0  0  0  0  0  0  0
    6.6115    1.2030    0.0000 O   0  0  0  0  0  0  0  0  0  0  0  0
    2.3459    0.0000    0.0000 O   0  0  0  0  0  0  0  0  0  0  0  0
  1  2  1  0  0  0  0
  3  1  1  1  0  0  0
  1  4  1  0  0  0  0
  2  5  2  0  0  0  0
  2  6  1  0  0  0  0
  3  7  1  0  0  0  0
  3  8  1  0  0  0  0
  4  9  2  0  0  0  0
  5 10  1  0  0  0  0
  5  9  1  0  0  0  0
  6 11  2  0  0  0  0
  7 12  1  0  0  0  0
  8 13  1  0  0  0  0
 10 14  1  0  0  0  0
 10 15  2  0  0  0  0
 11 14  1  0  0  0  0
 12 16  1  1  0  0  0
 12 13  1  0  0  0  0
 13 17  1  6  0  0  0
 16 18  1  0  0  0  0
M  END
>  <Mol_ID> (76)
1915

>  <Formula> (76)
C10H12N4O4

>  <MolWeight> (76)
252.22668

>  <Cat> (76)
S3757

>  <Name> (76)
2'-Deoxyinosine

>  <Synonyms> (76)
Guanine deoxyriboside, Deoxyinosine

>  <Target> (76)
Others

>  <Form> (76)
free base

>  <CAS> (76)
890-38-0

>  <URL> (76)
http://www.selleckchem.com/products/2-deoxyinosine.html

$$$$
EPZ004777.cdx
csChFnd80/01042310162D

 39 42  0  0  0  0  0  0  0  0999 V2000
   10.4479    5.0012    0.0000 C   0  0  0  0  0  0  0  0  0  0  0  0
    9.3221    4.1690    0.0000 C   0  0  0  0  0  0  0  0  0  0  0  0
    8.0385    4.7279    0.0000 N   0  0  0  0  0  0  0  0  0  0  0  0
    6.9127    3.8957    0.0000 C   0  0  0  0  0  0  0  0  0  0  0  0
    5.6291    4.4546    0.0000 N   0  0  0  0  0  0  0  0  0  0  0  0
    4.5032    3.6224    0.0000 C   0  0  0  0  0  0  0  0  0  0  0  0
    3.2196    4.1813    0.0000 C   0  0  0  0  0  0  0  0  0  0  0  0
    2.0938    3.3491    0.0000 C   0  0  0  0  0  0  0  0  0  0  0  0
    2.2516    1.9580    0.0000 C   0  0  0  0  0  0  0  0  0  0  0  0
    3.5352    1.3991    0.0000 C   0  0  0  0  0  0  0  0  0  0  0  0
    4.6610    2.2313    0.0000 C   0  0  0  0  0  0  0  0  0  0  0  0
    1.1258    1.1258    0.0000 C   0  0  0  0  0  0  0  0  0  0  0  0
    0.0000    0.2936    0.0000 C   0  0  0  0  0  0  0  0  0  0  0  0
    1.9580    0.0000    0.0000 C   0  0  0  0  0  0  0  0  0  0  0  0
    0.2936    2.2516    0.0000 C   0  0  0  0  0  0  0  0  0  0  0  0
    7.0705    2.5046    0.0000 O   0  0  0  0  0  0  0  0  0  0  0  0
   11.7315    4.4423    0.0000 C   0  0  0  0  0  0  0  0  0  0  0  0
   12.8573    5.2745    0.0000 N   0  0  0  0  0  0  0  0  0  0  0  0
   14.1409    4.7157    0.0000 C   0  0  0  0  0  0  0  0  0  0  0  0
   12.6995    6.6656    0.0000 C   0  0  0  0  0  0  0  0  0  0  0  0
   13.8253    7.4978    0.0000 C   0  0  0  0  0  0  0  0  0  0  0  0
   11.4159    7.2245    0.0000 C   0  0  0  0  0  0  0  0  0  0  0  0
   15.2667    5.5479    0.0000 C   0  0  2  0  0  0  0  0  0  0  0  0
   16.6017    5.1262    0.0000 C   0  0  2  0  0  0  0  0  0  0  0  0
   17.4153    6.2656    0.0000 C   0  0  2  0  0  0  0  0  0  0  0  0
   16.5831    7.3914    0.0000 C   0  0  1  0  0  0  0  0  0  0  0  0
   15.2552    6.9478    0.0000 O   0  0  0  0  0  0  0  0  0  0  0  0
   17.0047    8.7264    0.0000 N   0  0  0  0  0  0  0  0  0  0  0  0
   18.8152    6.2771    0.0000 O   0  0  0  0  0  0  0  0  0  0  0  0
   17.0453    3.7983    0.0000 O   0  0  0  0  0  0  0  0  0  0  0  0
   18.3326    9.1700    0.0000 C   0  0  0  0  0  0  0  0  0  0  0  0
   18.3211   10.5699    0.0000 C   0  0  0  0  0  0  0  0  0  0  0  0
   16.9861   10.9915    0.0000 C   0  0  0  0  0  0  0  0  0  0  0  0
   16.1725    9.8522    0.0000 C   0  0  0  0  0  0  0  0  0  0  0  0
   19.5507    8.4800    0.0000 N   0  0  0  0  0  0  0  0  0  0  0  0
   20.7574    9.1899    0.0000 C   0  0  0  0  0  0  0  0  0  0  0  0
   20.7459   10.5899    0.0000 N   0  0  0  0  0  0  0  0  0  0  0  0
   19.5277   11.2799    0.0000 C   0  0  0  0  0  0  0  0  0  0  0  0
   19.5162   12.6798    0.0000 N   0  0  0  0  0  0  0  0  0  0  0  0
  1  2  1  0  0  0  0
  2  3  1  0  0  0  0
  3  4  1  0  0  0  0
  4  5  1  0  0  0  0
  5  6  1  0  0  0  0
  6  7  2  0  0  0  0
  7  8  1  0  0  0  0
  8  9  2  0  0  0  0
  9 10  1  0  0  0  0
 10 11  2  0  0  0  0
 11  6  1  0  0  0  0
  9 12  1  0  0  0  0
 12 13  1  0  0  0  0
 12 14  1  0  0  0  0
 12 15  1  0  0  0  0
  4 16  2  0  0  0  0
  1 17  1  0  0  0  0
 17 18  1  0  0  0  0
 18 19  1  0  0  0  0
 18 20  1  0  0  0  0
 20 21  1  0  0  0  0
 20 22  1  0  0  0  0
 23 24  1  0  0  0  0
 24 25  1  0  0  0  0
 25 26  1  0  0  0  0
 26 27  1  0  0  0  0
 27 23  1  0  0  0  0
 26 28  1  1  0  0  0
 25 29  1  6  0  0  0
 24 30  1  6  0  0  0
 23 19  1  1  0  0  0
 28 31  1  0  0  0  0
 31 32  2  0  0  0  0
 32 33  1  0  0  0  0
 33 34  2  0  0  0  0
 34 28  1  0  0  0  0
 31 35  1  0  0  0  0
 35 36  2  0  0  0  0
 36 37  1  0  0  0  0
 37 38  2  0  0  0  0
 38 32  1  0  0  0  0
 38 39  1  0  0  0  0
M  END
>  <Mol_ID> (77)
1998

>  <Formula> (77)
C28H41N7O4

>  <MolWeight> (77)
539.66964

>  <Cat> (77)
S7353

>  <Name> (77)
EPZ004777

>  <Synonyms> (77)
N/A

>  <Target> (77)
Histone Methyltransferase

>  <Form> (77)
Free Base

>  <CAS> (77)
1338466-77-5

>  <URL> (77)
https://www.selleckchem.com/products/epz004777.html

$$$$
S4785 Nicotinamide N-oxide.cdx
csChFnd80/01042310162D

 10 10  0  0  0  0  0  0  0  0999 V2000
    2.4179    3.4867    0.0000 C   0  0  0  0  0  0  0  0  0  0  0  0
    2.4267    2.1076    0.0000 C   0  0  0  0  0  0  0  0  0  0  0  0
    1.2038    4.1884    0.0000 C   0  0  0  0  0  0  0  0  0  0  0  0
    3.6303    4.1867    0.0000 C   0  0  0  0  0  0  0  0  0  0  0  0
    1.2035    1.4000    0.0000 N   0  3  0  0  0  0  0  0  0  0  0  0
    0.0000    3.4975    0.0000 C   0  0  0  0  0  0  0  0  0  0  0  0
    4.8415    3.4874    0.0000 N   0  0  0  0  0  0  0  0  0  0  0  0
    3.6303    5.5882    0.0000 O   0  0  0  0  0  0  0  0  0  0  0  0
    0.0002    2.0900    0.0000 C   0  0  0  0  0  0  0  0  0  0  0  0
    1.2035    0.0000    0.0000 O   0  5  0  0  0  0  0  0  0  0  0  0
  1  2  1  0  0  0  0
  1  3  2  0  0  0  0
  1  4  1  0  0  0  0
  2  5  2  0  0  0  0
  3  6  1  0  0  0  0
  4  7  1  0  0  0  0
  4  8  2  0  0  0  0
  5  9  1  0  0  0  0
  5 10  1  0  0  0  0
  6  9  2  0  0  0  0
M  END
>  <Mol_ID> (78)
2078

>  <Formula> (78)
C6H6N2O2

>  <MolWeight> (78)
138.12404

>  <Cat> (78)
S4785

>  <Name> (78)
Nicotinamide N-oxide

>  <Synonyms> (78)
Nicotinamide 1-oxide, 1-oxynicotinamide, 1-Oxy-nicotinamide

>  <Target> (78)
Others

>  <Form> (78)
free base

>  <CAS> (78)
1986-81-8

>  <URL> (78)
http://www.selleckchem.com/products/nicotinamide-n-oxide.html

$$$$
S4801 6-Chloropurine.cdx
csChFnd80/01042310162D

 10 11  0  0  0  0  0  0  0  0999 V2000
    2.4263    2.1002    0.0000 C   0  0  0  0  0  0  0  0  0  0  0  0
    2.4263    0.7002    0.0000 C   0  0  0  0  0  0  0  0  0  0  0  0
    1.2143    2.8000    0.0000 C   0  0  0  0  0  0  0  0  0  0  0  0
    3.7587    2.5318    0.0000 N   0  0  0  0  0  0  0  0  0  0  0  0
    1.2135    0.0000    0.0000 N   0  0  0  0  0  0  0  0  0  0  0  0
    3.7569    0.2666    0.0000 N   0  0  0  0  0  0  0  0  0  0  0  0
    0.0029    2.1006    0.0000 N   0  0  0  0  0  0  0  0  0  0  0  0
    1.2143    4.2012    0.0000 Cl  0  0  0  0  0  0  0  0  0  0  0  0
    4.5807    1.3986    0.0000 C   0  0  0  0  0  0  0  0  0  0  0  0
    0.0000    0.7006    0.0000 C   0  0  0  0  0  0  0  0  0  0  0  0
  1  2  2  0  0  0  0
  1  3  1  0  0  0  0
  1  4  1  0  0  0  0
  2  5  1  0  0  0  0
  2  6  1  0  0  0  0
  3  7  2  0  0  0  0
  3  8  1  0  0  0  0
  4  9  2  0  0  0  0
  5 10  2  0  0  0  0
  7 10  1  0  0  0  0
  9  6  1  0  0  0  0
M  END
>  <Mol_ID> (79)
2093

>  <Formula> (79)
C5H3ClN4

>  <MolWeight> (79)
154.55712

>  <Cat> (79)
S4801

>  <Name> (79)
6-Chloropurine

>  <Synonyms> (79)
N/A

>  <Target> (79)
Others

>  <Form> (79)
free base

>  <CAS> (79)
87-42-3

>  <URL> (79)
http://www.selleckchem.com/products/6-chloropurine.html

$$$$
S4803 Thymidine.cdx
csChFnd80/01042310162D

 17 18  0  0  0  0  0  0  0  0999 V2000
    1.4448    0.0000    0.0000 O   0  0  0  0  0  0  0  0  0  0  0  0
    0.8796    1.2776    0.0000 C   0  0  0  0  0  0  0  0  0  0  0  0
    1.7033    2.3981    0.0000 C   0  0  2  0  0  0  0  0  0  0  0  0
    3.1051    2.3981    0.0000 C   0  0  1  0  0  0  0  0  0  0  0  0
    3.9237    1.2582    0.0000 O   0  0  0  0  0  0  0  0  0  0  0  0
    3.5527    3.7188    0.0000 C   0  0  0  0  0  0  0  0  0  0  0  0
    2.4232    4.5554    0.0000 C   0  0  1  0  0  0  0  0  0  0  0  0
    1.2918    3.7338    0.0000 O   0  0  0  0  0  0  0  0  0  0  0  0
    2.4232    5.9524    0.0000 N   0  0  0  0  0  0  0  0  0  0  0  0
    1.2092    6.6534    0.0000 C   0  0  0  0  0  0  0  0  0  0  0  0
    0.0000    5.9552    0.0000 O   0  0  0  0  0  0  0  0  0  0  0  0
    1.2092    8.0534    0.0000 N   0  0  0  0  0  0  0  0  0  0  0  0
    2.4255    8.7556    0.0000 C   0  0  0  0  0  0  0  0  0  0  0  0
    2.4255   10.1534    0.0000 O   0  0  0  0  0  0  0  0  0  0  0  0
    3.6391    8.0550    0.0000 C   0  0  0  0  0  0  0  0  0  0  0  0
    4.8487    8.7533    0.0000 C   0  0  0  0  0  0  0  0  0  0  0  0
    3.6391    6.6547    0.0000 C   0  0  0  0  0  0  0  0  0  0  0  0
  1  2  1  0  0  0  0
  3  2  1  1  0  0  0
  3  4  1  0  0  0  0
  4  5  1  6  0  0  0
  4  6  1  0  0  0  0
  6  7  1  0  0  0  0
  7  8  1  0  0  0  0
  3  8  1  0  0  0  0
  7  9  1  1  0  0  0
  9 10  1  0  0  0  0
 10 11  2  0  0  0  0
 10 12  1  0  0  0  0
 12 13  1  0  0  0  0
 13 14  2  0  0  0  0
 13 15  1  0  0  0  0
 15 16  1  0  0  0  0
 15 17  2  0  0  0  0
  9 17  1  0  0  0  0
M  END
>  <Mol_ID> (80)
2094

>  <Formula> (80)
C10H14N2O5

>  <MolWeight> (80)
242.22856

>  <Cat> (80)
S4803

>  <Name> (80)
Thymidine

>  <Synonyms> (80)
Deoxythymidine, 2'-Deoxythymidine, 5-Methyldeoxyuridine

>  <Target> (80)
Others

>  <Form> (80)
free base

>  <CAS> (80)
50-89-5

>  <URL> (80)
http://www.selleckchem.com/products/thymidine.html

$$$$
S4807 Uracil 1-¦Â-D-arabinofuranoside.cdx
csChFnd80/01042310162D

 17 18  0  0  0  0  0  0  0  0999 V2000
    2.9238    3.2923    0.0000 C   0  0  2  0  0  0  0  0  0  0  0  0
    2.9238    4.6893    0.0000 N   0  0  0  0  0  0  0  0  0  0  0  0
    1.7848    2.4720    0.0000 O   0  0  0  0  0  0  0  0  0  0  0  0
    4.0530    2.4646    0.0000 C   0  0  2  0  0  0  0  0  0  0  0  0
    1.7132    5.3961    0.0000 C   0  0  0  0  0  0  0  0  0  0  0  0
    4.1424    5.3862    0.0000 C   0  0  0  0  0  0  0  0  0  0  0  0
    2.2136    1.1374    0.0000 C   0  0  1  0  0  0  0  0  0  0  0  0
    3.6155    1.1328    0.0000 C   0  0  1  0  0  0  0  0  0  0  0  0
    5.3830    2.8920    0.0000 O   0  0  0  0  0  0  0  0  0  0  0  0
    1.7189    6.7960    0.0000 N   0  0  0  0  0  0  0  0  0  0  0  0
    0.5034    4.6976    0.0000 O   0  0  0  0  0  0  0  0  0  0  0  0
    4.1470    6.7881    0.0000 C   0  0  0  0  0  0  0  0  0  0  0  0
    1.3888    0.0099    0.0000 C   0  0  0  0  0  0  0  0  0  0  0  0
    4.4329    0.0000    0.0000 O   0  0  0  0  0  0  0  0  0  0  0  0
    2.9375    7.4929    0.0000 C   0  0  0  0  0  0  0  0  0  0  0  0
    0.0000    0.1605    0.0000 O   0  0  0  0  0  0  0  0  0  0  0  0
    2.9375    8.8899    0.0000 O   0  0  0  0  0  0  0  0  0  0  0  0
  1  2  1  1  0  0  0
  1  3  1  0  0  0  0
  1  4  1  0  0  0  0
  2  5  1  0  0  0  0
  2  6  1  0  0  0  0
  3  7  1  0  0  0  0
  4  8  1  0  0  0  0
  4  9  1  1  0  0  0
  5 10  1  0  0  0  0
  5 11  2  0  0  0  0
  6 12  2  0  0  0  0
  7 13  1  1  0  0  0
  7  8  1  0  0  0  0
  8 14  1  6  0  0  0
 10 15  1  0  0  0  0
 12 15  1  0  0  0  0
 13 16  1  0  0  0  0
 15 17  2  0  0  0  0
M  END
>  <Mol_ID> (81)
2103

>  <Formula> (81)
C9H12N2O6

>  <MolWeight> (81)
244.20138

>  <Cat> (81)
S4807

>  <Name> (81)
Uracil 1-¦Â-D-arabinofuranoside

>  <Synonyms> (81)
Spongouridine, Arauridine, 1-beta-D-Arabinofuranosyluracil, Ara-U

>  <Target> (81)
Others

>  <Form> (81)
free base

>  <CAS> (81)
3083-77-0

>  <URL> (81)
http://www.selleckchem.com/products/uracil-1-beta-d-arabinofuranoside.html

$$$$
S5009 Brivudine.cdx
csChFnd80/01042310162D

 19 20  0  0  0  0  0  0  0  0999 V2000
    2.9299    3.2877    0.0000 C   0  0  2  0  0  0  0  0  0  0  0  0
    2.9299    4.6916    0.0000 N   0  0  0  0  0  0  0  0  0  0  0  0
    1.7895    2.4631    0.0000 O   0  0  0  0  0  0  0  0  0  0  0  0
    4.0512    2.4647    0.0000 C   0  0  0  0  0  0  0  0  0  0  0  0
    1.7166    5.3922    0.0000 C   0  0  0  0  0  0  0  0  0  0  0  0
    4.1303    5.3847    0.0000 C   0  0  0  0  0  0  0  0  0  0  0  0
    2.2166    1.1409    0.0000 C   0  0  1  0  0  0  0  0  0  0  0  0
    3.6067    1.1409    0.0000 C   0  0  1  0  0  0  0  0  0  0  0  0
    1.7166    6.8026    0.0000 N   0  0  0  0  0  0  0  0  0  0  0  0
    0.5062    4.6934    0.0000 O   0  0  0  0  0  0  0  0  0  0  0  0
    4.1303    6.7776    0.0000 C   0  0  0  0  0  0  0  0  0  0  0  0
    1.3969    0.0060    0.0000 C   0  0  0  0  0  0  0  0  0  0  0  0
    4.4315    0.0000    0.0000 O   0  0  0  0  0  0  0  0  0  0  0  0
    2.9463    7.5126    0.0000 C   0  0  0  0  0  0  0  0  0  0  0  0
    5.3736    7.4954    0.0000 C   0  0  0  0  0  0  0  0  0  0  0  0
    0.0000    0.1459    0.0000 O   0  0  0  0  0  0  0  0  0  0  0  0
    2.9463    8.8999    0.0000 O   0  0  0  0  0  0  0  0  0  0  0  0
    6.6156    6.7784    0.0000 C   0  0  0  0  0  0  0  0  0  0  0  0
    7.8180    7.4726    0.0000 Br  0  0  0  0  0  0  0  0  0  0  0  0
  1  2  1  1  0  0  0
  1  3  1  0  0  0  0
  1  4  1  0  0  0  0
  2  5  1  0  0  0  0
  2  6  1  0  0  0  0
  3  7  1  0  0  0  0
  4  8  1  0  0  0  0
  5  9  1  0  0  0  0
  5 10  2  0  0  0  0
  6 11  2  0  0  0  0
  7 12  1  1  0  0  0
  7  8  1  0  0  0  0
  8 13  1  6  0  0  0
  9 14  1  0  0  0  0
 11 15  1  0  0  0  0
 11 14  1  0  0  0  0
 12 16  1  0  0  0  0
 14 17  2  0  0  0  0
 15 18  2  0  0  0  0
 18 19  1  0  0  0  0
M  END
>  <Mol_ID> (82)
2117

>  <Formula> (82)
C11H13BrN2O5

>  <MolWeight> (82)
333.13532

>  <Cat> (82)
S5009

>  <Name> (82)
Brivudine

>  <Synonyms> (82)
BVDU

>  <Target> (82)
Antifection

>  <Form> (82)
free base

>  <CAS> (82)
69304-47-8

>  <URL> (82)
http://www.selleckchem.com/products/brivudine.html

$$$$
S4994 Methylcobalamin.cdx
csChFnd80/01042310162D

 93100  0  0  0  0  0  0  0  0999 V2000
    4.5613   14.4527    0.0000 C   0  0  1  0  0  0  0  0  0  0  0  0
    4.5613   13.1582    0.0000 C   0  0  1  0  0  0  0  0  0  0  0  0
    3.6915   15.5552    0.0000 C   0  0  2  0  0  0  0  0  0  0  0  0
    5.8965   14.9282    0.0000 N   0  0  0  0  0  0  0  0  0  0  0  0
    3.2366   13.9975    0.0000 C   0  0  0  0  0  0  0  0  0  0  0  0
    3.7828   12.0253    0.0000 C   0  0  1  0  0  0  0  0  0  0  0  0
    5.9370   12.7434    0.0000 N   0  0  0  0  0  0  0  0  0  0  0  0
    4.4908   16.7181    0.0000 C   0  0  1  0  0  0  0  0  0  0  0  0
    2.5084   14.8269    0.0000 C   0  0  0  0  0  0  0  0  0  0  0  0
    2.9231   16.7285    0.0000 C   0  0  0  0  0  0  0  0  0  0  0  0
    5.8561   16.3034    0.0000 C   0  0  0  0  0  0  0  0  0  0  0  0
    7.1503   14.2301    0.0000 Co  0  3  0  0  0  0  0  0  0  0  0  0
    4.6321   10.8926    0.0000 C   0  0  2  0  0  0  0  0  0  0  0  0
    2.4275   11.6817    0.0000 C   0  0  0  0  0  0  0  0  0  0  0  0
    5.9572   11.3375    0.0000 C   0  0  0  0  0  0  0  0  0  0  0  0
    4.3793   18.1140    0.0000 C   0  0  0  0  0  0  0  0  0  0  0  0
    1.4161   15.6966    0.0000 C   0  0  0  0  0  0  0  0  0  0  0  0
    6.9686   17.1429    0.0000 C   0  0  0  0  0  0  0  0  0  0  0  0
    8.5362   13.7144    0.0000 C   0  0  0  0  0  0  0  0  0  0  0  0
    3.6005    9.9623    0.0000 C   0  0  0  0  0  0  0  0  0  0  0  0
    4.9457    9.5476    0.0000 C   0  0  0  0  0  0  0  0  0  0  0  0
    1.2136   12.3691    0.0000 C   0  0  0  0  0  0  0  0  0  0  0  0
    7.0899   10.5386    0.0000 C   0  0  0  0  0  0  0  0  0  0  0  0
    3.0243   18.4680    0.0000 C   0  0  0  0  0  0  0  0  0  0  0  0
    0.1111   15.1909    0.0000 N   0  0  0  0  0  0  0  0  0  0  0  0
    1.6284   17.0721    0.0000 O   0  0  0  0  0  0  0  0  0  0  0  0
    8.2632   16.6070    0.0000 C   0  0  0  0  0  0  0  0  0  0  0  0
    6.8169   18.5284    0.0000 C   0  0  0  0  0  0  0  0  0  0  0  0
    4.1670    8.6676    0.0000 C   0  0  0  0  0  0  0  0  0  0  0  0
    0.0000   11.6817    0.0000 N   0  0  0  0  0  0  0  0  0  0  0  0
    1.2136   13.7752    0.0000 O   0  0  0  0  0  0  0  0  0  0  0  0
    8.3640   11.1152    0.0000 C   0  0  0  0  0  0  0  0  0  0  0  0
    6.9583    9.1531    0.0000 C   0  0  0  0  0  0  0  0  0  0  0  0
    2.9128   19.8636    0.0000 C   0  0  0  0  0  0  0  0  0  0  0  0
    9.4463   17.3350    0.0000 C   0  0  2  0  0  0  0  0  0  0  0  0
    8.5768   15.2416    0.0000 N   0  0  0  0  0  0  0  0  0  0  0  0
    3.1454    7.7168    0.0000 C   0  0  0  0  0  0  0  0  0  0  0  0
    9.5678   10.4577    0.0000 C   0  0  2  0  0  0  0  0  0  0  0  0
    8.6474   12.5108    0.0000 N   0  0  0  0  0  0  0  0  0  0  0  0
    1.6487   20.4704    0.0000 N   0  0  0  0  0  0  0  0  0  0  0  0
    4.0657   20.6625    0.0000 O   0  0  0  0  0  0  0  0  0  0  0  0
   10.5184   16.4249    0.0000 C   0  0  1  0  0  0  0  0  0  0  0  0
   10.5084   18.2554    0.0000 C   0  0  0  0  0  0  0  0  0  0  0  0
    8.8597   18.5994    0.0000 C   0  0  0  0  0  0  0  0  0  0  0  0
    9.9825   15.1203    0.0000 C   0  0  0  0  0  0  0  0  0  0  0  0
    3.7828    6.4729    0.0000 N   0  0  0  0  0  0  0  0  0  0  0  0
    1.8003    8.1315    0.0000 O   0  0  0  0  0  0  0  0  0  0  0  0
   10.6196   11.4185    0.0000 C   0  0  0  0  0  0  0  0  0  0  0  0
    9.7297    9.0721    0.0000 C   0  0  0  0  0  0  0  0  0  0  0  0
   10.0329   12.6827    0.0000 C   0  0  0  0  0  0  0  0  0  0  0  0
   11.8836   16.7383    0.0000 C   0  0  0  0  0  0  0  0  0  0  0  0
   10.2150   19.6209    0.0000 C   0  0  0  0  0  0  0  0  0  0  0  0
   10.7005   13.9165    0.0000 C   0  0  0  0  0  0  0  0  0  0  0  0
    3.2567    5.1683    0.0000 C   0  0  0  0  0  0  0  0  0  0  0  0
   11.9443   11.8738    0.0000 C   0  0  0  0  0  0  0  0  0  0  0  0
   11.6713   10.4981    0.0000 C   0  0  0  0  0  0  0  0  0  0  0  0
   11.0950    8.7585    0.0000 C   0  0  0  0  0  0  0  0  0  0  0  0
   12.0253   18.1239    0.0000 C   0  0  0  0  0  0  0  0  0  0  0  0
   11.2566   20.5613    0.0000 N   0  0  0  0  0  0  0  0  0  0  0  0
    8.8902   20.0557    0.0000 O   0  0  0  0  0  0  0  0  0  0  0  0
    1.9520    4.6523    0.0000 C   0  0  3  0  0  0  0  0  0  0  0  0
   11.2566    7.3830    0.0000 C   0  0  0  0  0  0  0  0  0  0  0  0
   13.4010   18.4478    0.0000 C   0  0  0  0  0  0  0  0  0  0  0  0
    1.7499    3.2768    0.0000 O   0  0  0  0  0  0  0  0  0  0  0  0
    0.8597    5.5223    0.0000 C   0  0  0  0  0  0  0  0  0  0  0  0
   12.6119    7.0090    0.0000 N   0  0  0  0  0  0  0  0  0  0  0  0
   10.1239    6.5435    0.0000 O   0  0  0  0  0  0  0  0  0  0  0  0
   13.8054   19.7826    0.0000 N   0  0  0  0  0  0  0  0  0  0  0  0
   14.3618   17.4361    0.0000 O   0  0  0  0  0  0  0  0  0  0  0  0
    2.9837    2.6095    0.0000 P   0  0  3  0  0  0  0  0  0  0  0  0
    3.9443    1.5574    0.0000 O   0  0  0  0  0  0  0  0  0  0  0  0
    2.0733    1.5272    0.0000 O   0  0  0  0  0  0  0  0  0  0  0  0
    4.0860    3.4085    0.0000 O   0  5  0  0  0  0  0  0  0  0  0  0
    5.2389    2.1035    0.0000 C   0  0  2  0  0  0  0  0  0  0  0  0
    5.5525    3.4490    0.0000 C   0  0  2  0  0  0  0  0  0  0  0  0
    6.4122    1.3855    0.0000 C   0  0  2  0  0  0  0  0  0  0  0  0
    6.9280    3.5700    0.0000 O   0  0  0  0  0  0  0  0  0  0  0  0
    4.9357    4.6929    0.0000 C   0  0  0  0  0  0  0  0  0  0  0  0
    7.4539    2.3261    0.0000 C   0  0  2  0  0  0  0  0  0  0  0  0
    6.5439    0.0000    0.0000 O   0  0  0  0  0  0  0  0  0  0  0  0
    5.9169    5.6739    0.0000 O   0  0  0  0  0  0  0  0  0  0  0  0
    8.7485    1.8103    0.0000 N   0  0  0  0  0  0  0  0  0  0  0  0
    9.9218    2.5386    0.0000 C   0  0  0  0  0  0  0  0  0  0  0  0
    9.0823    0.4755    0.0000 C   0  0  0  0  0  0  0  0  0  0  0  0
   10.9937    1.6182    0.0000 C   0  0  0  0  0  0  0  0  0  0  0  0
   10.1846    3.9343    0.0000 C   0  0  0  0  0  0  0  0  0  0  0  0
   10.4779    0.3743    0.0000 N   0  0  0  0  0  0  0  0  0  0  0  0
   12.3289    2.0937    0.0000 C   0  0  0  0  0  0  0  0  0  0  0  0
   11.5198    4.3995    0.0000 C   0  0  0  0  0  0  0  0  0  0  0  0
   12.6019    3.4792    0.0000 C   0  0  0  0  0  0  0  0  0  0  0  0
   11.7724    5.7648    0.0000 C   0  0  0  0  0  0  0  0  0  0  0  0
   13.9165    3.9443    0.0000 C   0  0  0  0  0  0  0  0  0  0  0  0
    5.8256   13.9065    0.0000 H   0  0  0  0  0  0  0  0  0  0  0  0
  1  2  1  0  0  0  0
  1  3  1  0  0  0  0
  1  4  1  0  0  0  0
  1  5  1  6  0  0  0
  2  6  1  0  0  0  0
  2  7  1  0  0  0  0
  2 93  1  1  0  0  0
  3  8  1  0  0  0  0
  3  9  1  1  0  0  0
  3 10  1  0  0  0  0
  4 11  1  0  0  0  0
  4 12  1  0  0  0  0
  6 13  1  0  0  0  0
  6 14  1  1  0  0  0
  7 15  2  0  0  0  0
  8 16  1  6  0  0  0
  8 11  1  0  0  0  0
  9 17  1  0  0  0  0
 11 18  2  0  0  0  0
 12 19  1  0  0  0  0
 13 20  1  0  0  0  0
 13 21  1  1  0  0  0
 13 15  1  0  0  0  0
 14 22  1  0  0  0  0
 15 23  1  0  0  0  0
 16 24  1  0  0  0  0
 17 25  1  0  0  0  0
 17 26  2  0  0  0  0
 18 27  1  0  0  0  0
 18 28  1  0  0  0  0
 20 29  1  0  0  0  0
 22 30  1  0  0  0  0
 22 31  2  0  0  0  0
 23 32  2  0  0  0  0
 23 33  1  0  0  0  0
 24 34  1  0  0  0  0
 27 35  1  0  0  0  0
 27 36  2  0  0  0  0
 29 37  1  0  0  0  0
 32 38  1  0  0  0  0
 32 39  1  0  0  0  0
 34 40  1  0  0  0  0
 34 41  2  0  0  0  0
 35 42  1  0  0  0  0
 35 43  1  1  0  0  0
 35 44  1  0  0  0  0
 36 45  1  0  0  0  0
 37 46  1  0  0  0  0
 37 47  2  0  0  0  0
 38 48  1  0  0  0  0
 38 49  1  6  0  0  0
 39 50  2  0  0  0  0
 42 51  1  6  0  0  0
 42 45  1  0  0  0  0
 43 52  1  0  0  0  0
 45 53  2  0  0  0  0
 46 54  1  0  0  0  0
 48 55  1  0  0  0  0
 48 56  1  0  0  0  0
 48 50  1  0  0  0  0
 49 57  1  0  0  0  0
 50 53  1  0  0  0  0
 51 58  1  0  0  0  0
 52 59  1  0  0  0  0
 52 60  2  0  0  0  0
 54 61  1  0  0  0  0
 57 62  1  0  0  0  0
 58 63  1  0  0  0  0
 61 64  1  0  0  0  0
 61 65  1  0  0  0  0
 62 66  1  0  0  0  0
 62 67  2  0  0  0  0
 63 68  1  0  0  0  0
 63 69  2  0  0  0  0
 64 70  1  0  0  0  0
 70 71  1  0  0  0  0
 70 72  2  0  0  0  0
 70 73  1  0  0  0  0
 74 71  1  6  0  0  0
 74 75  1  0  0  0  0
 74 76  1  0  0  0  0
 75 77  1  0  0  0  0
 75 78  1  1  0  0  0
 76 79  1  0  0  0  0
 76 80  1  6  0  0  0
 77 79  1  0  0  0  0
 78 81  1  0  0  0  0
 79 82  1  6  0  0  0
 82 83  1  0  0  0  0
 82 84  1  0  0  0  0
 83 85  2  0  0  0  0
 83 86  1  0  0  0  0
 84 87  2  0  0  0  0
 85 88  1  0  0  0  0
 85 87  1  0  0  0  0
 86 89  2  0  0  0  0
 88 90  2  0  0  0  0
 89 91  1  0  0  0  0
 89 90  1  0  0  0  0
 90 92  1  0  0  0  0
M  END
>  <Mol_ID> (83)
2158

>  <Formula> (83)
C63H91CoN13O14P

>  <MolWeight> (83)
1344.382301

>  <Cat> (83)
S4994

>  <Name> (83)
Methylcobalamin

>  <Synonyms> (83)
Mecobalamin, Vancomin, Methycobal, Cobametin

>  <Target> (83)
Vitamin

>  <Form> (83)
inner salt

>  <CAS> (83)
13422-55-4

>  <URL> (83)
http://selleckchem.com/products/methylcobalamin.html

$$$$
S4893 Cytosine.cdx
csChFnd80/01042310162D

  8  8  0  0  0  0  0  0  0  0999 V2000
    2.4245    2.1195    0.0000 N   0  0  0  0  0  0  0  0  0  0  0  0
    1.2009    2.7996    0.0000 C   0  0  0  0  0  0  0  0  0  0  0  0
    2.4473    0.7197    0.0000 C   0  0  0  0  0  0  0  0  0  0  0  0
    0.0000    2.0800    0.0000 C   0  0  0  0  0  0  0  0  0  0  0  0
    1.1781    4.1994    0.0000 N   0  0  0  0  0  0  0  0  0  0  0  0
    1.2465    0.0000    0.0000 N   0  0  0  0  0  0  0  0  0  0  0  0
    3.6710    0.0395    0.0000 O   0  0  0  0  0  0  0  0  0  0  0  0
    0.0228    0.6802    0.0000 C   0  0  0  0  0  0  0  0  0  0  0  0
  1  2  2  0  0  0  0
  1  3  1  0  0  0  0
  2  4  1  0  0  0  0
  2  5  1  0  0  0  0
  3  6  1  0  0  0  0
  3  7  2  0  0  0  0
  4  8  2  0  0  0  0
  6  8  1  0  0  0  0
M  END
>  <Mol_ID> (84)
2205

>  <Formula> (84)
C4H5N3O

>  <MolWeight> (84)
111.102

>  <Cat> (84)
S4893

>  <Name> (84)
Cytosine

>  <Synonyms> (84)
4-Amino-2-hydroxypyrimidine, Cytosinimine

>  <Target> (84)
Others

>  <Form> (84)
free base

>  <CAS> (84)
71-30-7

>  <URL> (84)
http://selleckchem.com/products/cytosine.html

$$$$
S5016 Isoprinosine.cdx
csChFnd80/01042310162D

 79 78  0  0  0  0  0  0  0  0999 V2000
    2.8936    5.7333    0.0000 N   0  0  0  0  0  0  0  0  0  0  0  0
    4.2241    6.1670    0.0000 C   0  0  0  0  0  0  0  0  0  0  0  0
    4.2241    7.5670    0.0000 C   0  0  0  0  0  0  0  0  0  0  0  0
    2.4620    4.4015    0.0000 C   0  0  1  0  0  0  0  0  0  0  0  0
    2.8917    7.9986    0.0000 N   0  0  0  0  0  0  0  0  0  0  0  0
    3.2858    3.2701    0.0000 C   0  0  1  0  0  0  0  0  0  0  0  0
    2.0698    6.8653    0.0000 C   0  0  0  0  0  0  0  0  0  0  0  0
    1.1314    3.9678    0.0000 O   0  0  0  0  0  0  0  0  0  0  0  0
    5.4370    5.4668    0.0000 N   0  0  0  0  0  0  0  0  0  0  0  0
    5.4361    8.2668    0.0000 C   0  0  0  0  0  0  0  0  0  0  0  0
    2.4638    2.1363    0.0000 C   0  0  1  0  0  0  0  0  0  0  0  0
    1.1314    2.5678    0.0000 C   0  0  1  0  0  0  0  0  0  0  0  0
    6.6475    7.5674    0.0000 N   0  0  0  0  0  0  0  0  0  0  0  0
    6.6505    6.1674    0.0000 C   0  0  0  0  0  0  0  0  0  0  0  0
    5.4361    9.6680    0.0000 O   0  0  0  0  0  0  0  0  0  0  0  0
    4.6858    3.2701    0.0000 O   0  0  0  0  0  0  0  0  0  0  0  0
    2.8975    0.8051    0.0000 O   0  0  0  0  0  0  0  0  0  0  0  0
    0.0000    1.7440    0.0000 C   0  0  0  0  0  0  0  0  0  0  0  0
    0.1474    0.3518    0.0000 O   0  0  0  0  0  0  0  0  0  0  0  0
   17.0128    6.4374    0.0000 C   0  0  0  0  0  0  0  0  0  0  0  0
   15.6128    6.4374    0.0000 C   0  0  0  0  0  0  0  0  0  0  0  0
   11.4128    6.4374    0.0000 N   0  0  0  0  0  0  0  0  0  0  0  0
   17.7128    7.6498    0.0000 O   0  0  0  0  0  0  0  0  0  0  0  0
   14.9128    5.2249    0.0000 C   0  0  0  0  0  0  0  0  0  0  0  0
   14.9128    7.6498    0.0000 C   0  0  0  0  0  0  0  0  0  0  0  0
   12.8128    6.4374    0.0000 C   0  0  0  0  0  0  0  0  0  0  0  0
   17.7128    5.2249    0.0000 O   0  0  0  0  0  0  0  0  0  0  0  0
   13.5128    7.6498    0.0000 C   0  0  0  0  0  0  0  0  0  0  0  0
   13.5128    5.2249    0.0000 C   0  0  0  0  0  0  0  0  0  0  0  0
   10.7128    7.6498    0.0000 C   0  0  0  0  0  0  0  0  0  0  0  0
    9.3128    7.6498    0.0000 C   0  0  0  0  0  0  0  0  0  0  0  0
   11.4128    8.8622    0.0000 O   0  0  0  0  0  0  0  0  0  0  0  0
   14.8252    0.7729    0.0000 N   0  0  0  0  0  0  0  0  0  0  0  0
   13.6128    0.0729    0.0000 C   0  0  0  0  0  0  0  0  0  0  0  0
   12.4003    2.1729    0.0000 O   0  0  0  0  0  0  0  0  0  0  0  0
   12.4003    0.7729    0.0000 C   0  0  3  0  0  0  0  0  0  0  0  0
   14.8252    2.1729    0.0000 C   0  0  0  0  0  0  0  0  0  0  0  0
   16.0376    0.0729    0.0000 C   0  0  0  0  0  0  0  0  0  0  0  0
   11.1879    0.0729    0.0000 C   0  0  0  0  0  0  0  0  0  0  0  0
   27.6336    6.5023    0.0000 C   0  0  0  0  0  0  0  0  0  0  0  0
   26.2336    6.5023    0.0000 C   0  0  0  0  0  0  0  0  0  0  0  0
   22.0336    6.5023    0.0000 N   0  0  0  0  0  0  0  0  0  0  0  0
   28.3336    7.7147    0.0000 O   0  0  0  0  0  0  0  0  0  0  0  0
   25.5336    5.2899    0.0000 C   0  0  0  0  0  0  0  0  0  0  0  0
   25.5336    7.7147    0.0000 C   0  0  0  0  0  0  0  0  0  0  0  0
   23.4336    6.5023    0.0000 C   0  0  0  0  0  0  0  0  0  0  0  0
   28.3336    5.2899    0.0000 O   0  0  0  0  0  0  0  0  0  0  0  0
   24.1336    7.7147    0.0000 C   0  0  0  0  0  0  0  0  0  0  0  0
   24.1336    5.2899    0.0000 C   0  0  0  0  0  0  0  0  0  0  0  0
   21.3336    7.7147    0.0000 C   0  0  0  0  0  0  0  0  0  0  0  0
   19.9336    7.7147    0.0000 C   0  0  0  0  0  0  0  0  0  0  0  0
   22.0336    8.9272    0.0000 O   0  0  0  0  0  0  0  0  0  0  0  0
   38.2794    6.2835    0.0000 C   0  0  0  0  0  0  0  0  0  0  0  0
   36.8794    6.2835    0.0000 C   0  0  0  0  0  0  0  0  0  0  0  0
   32.6794    6.2835    0.0000 N   0  0  0  0  0  0  0  0  0  0  0  0
   38.9794    7.4960    0.0000 O   0  0  0  0  0  0  0  0  0  0  0  0
   36.1794    5.0711    0.0000 C   0  0  0  0  0  0  0  0  0  0  0  0
   36.1794    7.4960    0.0000 C   0  0  0  0  0  0  0  0  0  0  0  0
   34.0794    6.2835    0.0000 C   0  0  0  0  0  0  0  0  0  0  0  0
   38.9794    5.0711    0.0000 O   0  0  0  0  0  0  0  0  0  0  0  0
   34.7794    7.4960    0.0000 C   0  0  0  0  0  0  0  0  0  0  0  0
   34.7794    5.0711    0.0000 C   0  0  0  0  0  0  0  0  0  0  0  0
   31.9794    7.4960    0.0000 C   0  0  0  0  0  0  0  0  0  0  0  0
   30.5794    7.4960    0.0000 C   0  0  0  0  0  0  0  0  0  0  0  0
   32.6794    8.7084    0.0000 O   0  0  0  0  0  0  0  0  0  0  0  0
   21.5335    0.7000    0.0000 N   0  0  0  0  0  0  0  0  0  0  0  0
   20.3211    0.0000    0.0000 C   0  0  0  0  0  0  0  0  0  0  0  0
   19.1087    2.1000    0.0000 O   0  0  0  0  0  0  0  0  0  0  0  0
   19.1087    0.7000    0.0000 C   0  0  3  0  0  0  0  0  0  0  0  0
   21.5335    2.1000    0.0000 C   0  0  0  0  0  0  0  0  0  0  0  0
   22.7460    0.0000    0.0000 C   0  0  0  0  0  0  0  0  0  0  0  0
   17.8962    0.0000    0.0000 C   0  0  0  0  0  0  0  0  0  0  0  0
   27.9502    0.7000    0.0000 N   0  0  0  0  0  0  0  0  0  0  0  0
   26.7378    0.0000    0.0000 C   0  0  0  0  0  0  0  0  0  0  0  0
   25.5253    2.1000    0.0000 O   0  0  0  0  0  0  0  0  0  0  0  0
   25.5253    0.7000    0.0000 C   0  0  3  0  0  0  0  0  0  0  0  0
   27.9502    2.1000    0.0000 C   0  0  0  0  0  0  0  0  0  0  0  0
   29.1627    0.0000    0.0000 C   0  0  0  0  0  0  0  0  0  0  0  0
   24.3129    0.0000    0.0000 C   0  0  0  0  0  0  0  0  0  0  0  0
  2  1  1  0  0  0  0
  4  1  1  1  0  0  0
  7  1  1  0  0  0  0
  3  2  2  0  0  0  0
  9  2  1  0  0  0  0
  3  5  1  0  0  0  0
 10  3  1  0  0  0  0
  6  4  1  0  0  0  0
  8  4  1  0  0  0  0
  5  7  2  0  0  0  0
  6 16  1  6  0  0  0
 11  6  1  0  0  0  0
 12  8  1  0  0  0  0
 14  9  2  0  0  0  0
 15 10  2  0  0  0  0
 10 13  1  0  0  0  0
 11 17  1  6  0  0  0
 12 11  1  0  0  0  0
 12 18  1  1  0  0  0
 13 14  1  0  0  0  0
 19 18  1  0  0  0  0
 21 20  1  0  0  0  0
 23 20  2  0  0  0  0
 27 20  1  0  0  0  0
 24 21  2  0  0  0  0
 25 21  1  0  0  0  0
 22 26  1  0  0  0  0
 22 30  1  0  0  0  0
 29 24  1  0  0  0  0
 28 25  2  0  0  0  0
 26 28  1  0  0  0  0
 29 26  2  0  0  0  0
 30 31  1  0  0  0  0
 30 32  2  0  0  0  0
 34 33  1  0  0  0  0
 37 33  1  0  0  0  0
 38 33  1  0  0  0  0
 36 34  1  0  0  0  0
 35 36  1  0  0  0  0
 39 36  1  0  0  0  0
 41 40  1  0  0  0  0
 43 40  2  0  0  0  0
 47 40  1  0  0  0  0
 44 41  2  0  0  0  0
 45 41  1  0  0  0  0
 42 46  1  0  0  0  0
 42 50  1  0  0  0  0
 49 44  1  0  0  0  0
 48 45  2  0  0  0  0
 46 48  1  0  0  0  0
 49 46  2  0  0  0  0
 50 51  1  0  0  0  0
 50 52  2  0  0  0  0
 54 53  1  0  0  0  0
 56 53  2  0  0  0  0
 60 53  1  0  0  0  0
 57 54  2  0  0  0  0
 58 54  1  0  0  0  0
 55 59  1  0  0  0  0
 55 63  1  0  0  0  0
 62 57  1  0  0  0  0
 61 58  2  0  0  0  0
 59 61  1  0  0  0  0
 62 59  2  0  0  0  0
 63 64  1  0  0  0  0
 63 65  2  0  0  0  0
 67 66  1  0  0  0  0
 70 66  1  0  0  0  0
 71 66  1  0  0  0  0
 69 67  1  0  0  0  0
 68 69  1  0  0  0  0
 72 69  1  0  0  0  0
 74 73  1  0  0  0  0
 77 73  1  0  0  0  0
 78 73  1  0  0  0  0
 76 74  1  0  0  0  0
 75 76  1  0  0  0  0
 79 76  1  0  0  0  0
M  END
>  <Mol_ID> (85)
2237

>  <Formula> (85)
C52H78N10O17

>  <MolWeight> (85)
1115.23252

>  <Cat> (85)
S5016

>  <Name> (85)
Isoprinosine

>  <Synonyms> (85)
inosine pranobex, Immunovir, Groprinosin, Delimmun

>  <Target> (85)
Anti-infection,Immunology & Inflammation rel

>  <Form> (85)
salt

>  <CAS> (85)
36703-88-5

>  <URL> (85)
http://selleckchem.com/products/isoprinosine.html

$$$$
Hypoxanthine.cdx
csChFnd80/01042310162D

 10 11  0  0  0  0  0  0  0  0999 V2000
    2.1544    3.4951    0.0000 C   0  0  0  0  0  0  0  0  0  0  0  0
    2.1544    2.0951    0.0000 C   0  0  0  0  0  0  0  0  0  0  0  0
    3.3668    1.3951    0.0000 C   0  0  0  0  0  0  0  0  0  0  0  0
    4.5793    2.0951    0.0000 N   0  0  0  0  0  0  0  0  0  0  0  0
    4.5793    3.4951    0.0000 C   0  0  0  0  0  0  0  0  0  0  0  0
    3.3668    4.1951    0.0000 N   0  0  0  0  0  0  0  0  0  0  0  0
    0.8229    3.9278    0.0000 N   0  0  0  0  0  0  0  0  0  0  0  0
    0.0000    2.7951    0.0000 C   0  0  0  0  0  0  0  0  0  0  0  0
    0.8229    1.6625    0.0000 N   0  0  0  0  0  0  0  0  0  0  0  0
    3.3668    0.0000    0.0000 O   0  0  0  0  0  0  0  0  0  0  0  0
  1  2  2  0  0  0  0
  2  3  1  0  0  0  0
  4  5  1  0  0  0  0
  5  6  2  0  0  0  0
  6  1  1  0  0  0  0
  1  7  1  0  0  0  0
  7  8  2  0  0  0  0
  8  9  1  0  0  0  0
  9  2  1  0  0  0  0
  3  4  1  0  0  0  0
  3 10  2  0  0  0  0
M  END
>  <Mol_ID> (86)
2265

>  <Formula> (86)
C5H4N4O

>  <MolWeight> (86)
136.11146

>  <Cat> (86)
S2424

>  <Name> (86)
Hypoxanthine

>  <Synonyms> (86)
N/A

>  <Target> (86)
Others

>  <Form> (86)
Free Base

>  <CAS> (86)
68-94-0

>  <URL> (86)
http://www.selleckchem.com/products/hypoxanthine.html

$$$$
NSC23766.cdx
csChFnd80/01042310162D

 34 33  0  0  0  0  0  0  0  0999 V2000
   14.5492    4.2000    0.0000 N   0  0  0  0  0  0  0  0  0  0  0  0
   15.7617    3.5000    0.0000 C   0  0  0  0  0  0  0  0  0  0  0  0
   15.7617    2.1000    0.0000 C   0  0  0  0  0  0  0  0  0  0  0  0
   14.5492    1.4000    0.0000 C   0  0  0  0  0  0  0  0  0  0  0  0
   13.3368    2.1000    0.0000 C   0  0  0  0  0  0  0  0  0  0  0  0
   12.1244    1.4000    0.0000 C   0  0  0  0  0  0  0  0  0  0  0  0
   10.9119    2.1000    0.0000 C   0  0  0  0  0  0  0  0  0  0  0  0
   10.9119    3.5000    0.0000 C   0  0  0  0  0  0  0  0  0  0  0  0
   12.1244    4.2000    0.0000 C   0  0  0  0  0  0  0  0  0  0  0  0
   13.3368    3.5000    0.0000 C   0  0  0  0  0  0  0  0  0  0  0  0
   14.5492    0.0000    0.0000 N   0  0  0  0  0  0  0  0  0  0  0  0
    9.6995    1.4000    0.0000 N   0  0  0  0  0  0  0  0  0  0  0  0
   16.9741    4.2000    0.0000 C   0  0  0  0  0  0  0  0  0  0  0  0
    7.2746    4.2000    0.0000 C   0  0  0  0  0  0  0  0  0  0  0  0
    8.4870    3.5000    0.0000 N   0  0  0  0  0  0  0  0  0  0  0  0
    8.4870    2.1000    0.0000 C   0  0  0  0  0  0  0  0  0  0  0  0
    7.2746    1.4000    0.0000 C   0  0  0  0  0  0  0  0  0  0  0  0
    6.0622    2.1000    0.0000 C   0  0  0  0  0  0  0  0  0  0  0  0
    6.0622    3.5000    0.0000 N   0  0  0  0  0  0  0  0  0  0  0  0
    4.8497    1.4000    0.0000 C   0  0  0  0  0  0  0  0  0  0  0  0
    7.2746    5.6000    0.0000 N   0  0  0  0  0  0  0  0  0  0  0  0
    6.0622    6.3000    0.0000 C   0  0  3  0  0  0  0  0  0  0  0  0
    4.8497    5.6000    0.0000 C   0  0  0  0  0  0  0  0  0  0  0  0
    3.6373    6.3000    0.0000 C   0  0  0  0  0  0  0  0  0  0  0  0
    2.4249    5.6000    0.0000 C   0  0  0  0  0  0  0  0  0  0  0  0
    6.0622    7.7000    0.0000 C   0  0  0  0  0  0  0  0  0  0  0  0
    1.2124    6.3000    0.0000 N   0  0  0  0  0  0  0  0  0  0  0  0
    0.0000    5.6000    0.0000 C   0  0  0  0  0  0  0  0  0  0  0  0
    0.0000    4.2000    0.0000 C   0  0  0  0  0  0  0  0  0  0  0  0
    1.2124    7.7000    0.0000 C   0  0  0  0  0  0  0  0  0  0  0  0
    0.0000    8.4000    0.0000 C   0  0  0  0  0  0  0  0  0  0  0  0
    9.1870    3.5630    0.0000 Cl  0  0  0  0  0  0  0  0  0  0  0  0
    7.7871    3.5630    0.0000 Cl  0  0  0  0  0  0  0  0  0  0  0  0
    8.4871    2.1630    0.0000 Cl  0  0  0  0  0  0  0  0  0  0  0  0
  1  2  1  0  0  0  0
  2  3  2  0  0  0  0
  3  4  1  0  0  0  0
  4  5  2  0  0  0  0
  5  6  1  0  0  0  0
  6  7  2  0  0  0  0
  7  8  1  0  0  0  0
  8  9  2  0  0  0  0
  9 10  1  0  0  0  0
  1 10  2  0  0  0  0
  5 10  1  0  0  0  0
  4 11  1  0  0  0  0
  7 12  1  0  0  0  0
  2 13  1  0  0  0  0
 14 15  1  0  0  0  0
 15 16  2  0  0  0  0
 16 17  1  0  0  0  0
 17 18  2  0  0  0  0
 18 19  1  0  0  0  0
 14 19  2  0  0  0  0
 18 20  1  0  0  0  0
 22 23  1  0  0  0  0
 23 24  1  0  0  0  0
 24 25  1  0  0  0  0
 22 26  1  0  0  0  0
 28 29  1  0  0  0  0
 27 28  1  0  0  0  0
 30 31  1  0  0  0  0
 27 30  1  0  0  0  0
 25 27  1  0  0  0  0
 21 22  1  0  0  0  0
 14 21  1  0  0  0  0
 12 16  1  0  0  0  0
M  END
>  <Mol_ID> (87)
2308

>  <Formula> (87)
C24H38Cl3N7

>  <MolWeight> (87)
530.96442

>  <Cat> (87)
S8031

>  <Name> (87)
NSC 23766

>  <Synonyms> (87)
N/A

>  <Target> (87)
Rac

>  <Form> (87)
HCl

>  <CAS> (87)
1177865-17-6

>  <URL> (87)
http://www.selleckchem.com/products/nsc-23766.html

$$$$
Zebularine.cdx
csChFnd80/01042310162D

 16 17  0  0  0  0  0  0  0  0999 V2000
    1.3523    2.1729    0.0000 C   0  0  1  0  0  0  0  0  0  0  0  0
    3.7772    2.1729    0.0000 C   0  0  2  0  0  0  0  0  0  0  0  0
    2.5647    2.8729    0.0000 O   0  0  0  0  0  0  0  0  0  0  0  0
    1.9085    1.4000    0.0000 C   0  0  2  0  0  0  0  0  0  0  0  0
    3.3085    1.4000    0.0000 C   0  0  1  0  0  0  0  0  0  0  0  0
    3.7772    3.5729    0.0000 N   0  0  0  0  0  0  0  0  0  0  0  0
    3.3085    0.0000    0.0000 O   0  0  0  0  0  0  0  0  0  0  0  0
    1.9085    0.0000    0.0000 O   0  0  0  0  0  0  0  0  0  0  0  0
    1.3523    3.5729    0.0000 C   0  0  0  0  0  0  0  0  0  0  0  0
    0.0000    3.9353    0.0000 O   0  0  0  0  0  0  0  0  0  0  0  0
    4.9896    4.2729    0.0000 C   0  0  0  0  0  0  0  0  0  0  0  0
    4.9896    5.6729    0.0000 N   0  0  0  0  0  0  0  0  0  0  0  0
    3.7772    6.3729    0.0000 C   0  0  0  0  0  0  0  0  0  0  0  0
    2.5647    5.6729    0.0000 C   0  0  0  0  0  0  0  0  0  0  0  0
    2.5647    4.2729    0.0000 C   0  0  0  0  0  0  0  0  0  0  0  0
    6.1978    3.5753    0.0000 O   0  0  0  0  0  0  0  0  0  0  0  0
  2  3  1  0  0  0  0
  3  1  1  0  0  0  0
  4  5  1  1  0  0  0
  1  4  1  1  0  0  0
  2  5  1  1  0  0  0
  2  6  1  0  0  0  0
  5  7  1  0  0  0  0
  4  8  1  0  0  0  0
  1  9  1  0  0  0  0
  9 10  1  0  0  0  0
  6 11  1  0  0  0  0
 11 12  1  0  0  0  0
 12 13  2  0  0  0  0
 13 14  1  0  0  0  0
 14 15  2  0  0  0  0
 15  6  1  0  0  0  0
 11 16  2  0  0  0  0
M  CFW   2 BOND_GSTEREO 5
M  END
>  <Mol_ID> (88)
2337

>  <Formula> (88)
C9H12N2O5

>  <MolWeight> (88)
228.20198

>  <Cat> (88)
S7113

>  <Name> (88)
Zebularine

>  <Synonyms> (88)
N/A

>  <Target> (88)
DNA Methyltransferase

>  <Form> (88)
Free Base

>  <CAS> (88)
654065

>  <URL> (88)
https://www.selleckchem.com/products/zebularine.html

$$$$
Gemcitabine hydrochloride.cdx
csChFnd80/01042310162D

 19 19  0  0  0  0  0  0  0  0999 V2000
    5.6413    5.0644    0.0000 C   0  0  0  0  0  0  0  0  0  0  0  0
    6.8533    5.7651    0.0000 N   0  0  0  0  0  0  0  0  0  0  0  0
    8.0661    5.0658    0.0000 C   0  0  0  0  0  0  0  0  0  0  0  0
    8.0670    3.6658    0.0000 C   0  0  0  0  0  0  0  0  0  0  0  0
    6.8550    2.9651    0.0000 C   0  0  0  0  0  0  0  0  0  0  0  0
    5.6421    3.6644    0.0000 N   0  0  0  0  0  0  0  0  0  0  0  0
    4.4284    5.7636    0.0000 O   0  0  0  0  0  0  0  0  0  0  0  0
    3.1508    3.5323    0.0000 O   0  0  0  0  0  0  0  0  0  0  0  0
    4.4301    2.9636    0.0000 C   0  0  2  0  0  0  0  0  0  0  0  0
    4.2846    1.5712    0.0000 C   0  0  0  0  0  0  0  0  0  0  0  0
    2.9154    1.2793    0.0000 C   0  0  1  0  0  0  0  0  0  0  0  0
    2.2146    2.4913    0.0000 C   0  0  1  0  0  0  0  0  0  0  0  0
    0.8222    2.6368    0.0000 C   0  0  0  0  0  0  0  0  0  0  0  0
    0.0000    1.5037    0.0000 O   0  0  0  0  0  0  0  0  0  0  0  0
    2.3467    0.0000    0.0000 O   0  0  0  0  0  0  0  0  0  0  0  0
    4.7180    0.2400    0.0000 F   0  0  0  0  0  0  0  0  0  0  0  0
    5.6542    1.2810    0.0000 F   0  0  0  0  0  0  0  0  0  0  0  0
    9.2782    5.7665    0.0000 N   0  0  0  0  0  0  0  0  0  0  0  0
   10.2686    2.9573    0.0000 Cl  0  0  0  0  0  0  0  0  0  0  0  0
  1  2  1  0  0  0  0
  2  3  2  0  0  0  0
  3  4  1  0  0  0  0
  4  5  2  0  0  0  0
  5  6  1  0  0  0  0
  1  6  1  0  0  0  0
  1  7  2  0  0  0  0
  8  9  1  0  0  0  0
  9 10  1  0  0  0  0
 10 11  1  0  0  0  0
 11 12  1  0  0  0  0
  8 12  1  0  0  0  0
 13 14  1  0  0  0  0
 10 16  1  0  0  0  0
 10 17  1  0  0  0  0
  3 18  1  0  0  0  0
 12 13  1  1  0  0  0
  9  6  1  1  0  0  0
 11 15  1  6  0  0  0
M  END
>  <Mol_ID> (89)
2349

>  <Formula> (89)
C9H12ClF2N3O4

>  <MolWeight> (89)
299.6590864

>  <Cat> (89)
S1149

>  <Name> (89)
Gemcitabine HCl (Gemzar)

>  <Synonyms> (89)
Gemzar

>  <Target> (89)
DNA/RNA Synthesis

>  <Form> (89)
Hydrochloride

>  <CAS> (89)
122111-03-9

>  <URL> (89)
http://www.selleckchem.com/products/Gemcitabine-Hydrochloride(Gemzar).html

$$$$
Mizoribine.cdx
csChFnd80/01042310162D

 18 19  0  0  0  0  0  0  0  0999 V2000
    4.1414    3.2474    0.0000 C   0  0  2  0  0  0  0  0  0  0  0  0
    2.7891    3.6097    0.0000 O   0  0  0  0  0  0  0  0  0  0  0  0
    2.0266    2.4356    0.0000 C   0  0  1  0  0  0  0  0  0  0  0  0
    2.9077    1.3476    0.0000 C   0  0  2  0  0  0  0  0  0  0  0  0
    4.2147    1.8493    0.0000 C   0  0  1  0  0  0  0  0  0  0  0  0
    5.2256    4.1254    0.0000 N   0  0  0  0  0  0  0  0  0  0  0  0
    0.6334    2.3626    0.0000 C   0  0  0  0  0  0  0  0  0  0  0  0
    0.0000    1.1195    0.0000 O   0  0  0  0  0  0  0  0  0  0  0  0
    2.5466    0.0000    0.0000 O   0  0  0  0  0  0  0  0  0  0  0  0
    5.3847    1.0895    0.0000 O   0  0  0  0  0  0  0  0  0  0  0  0
    6.5779    3.7630    0.0000 C   0  0  0  0  0  0  0  0  0  0  0  0
    7.3404    4.9372    0.0000 C   0  0  0  0  0  0  0  0  0  0  0  0
    6.4594    6.0252    0.0000 N   0  0  0  0  0  0  0  0  0  0  0  0
    5.1524    5.5235    0.0000 C   0  0  0  0  0  0  0  0  0  0  0  0
    7.0779    2.4606    0.0000 O   0  0  0  0  0  0  0  0  0  0  0  0
    8.7337    5.0102    0.0000 C   0  0  0  0  0  0  0  0  0  0  0  0
    9.3670    6.2533    0.0000 N   0  0  0  0  0  0  0  0  0  0  0  0
    9.4935    3.8401    0.0000 O   0  0  0  0  0  0  0  0  0  0  0  0
  1  2  1  0  0  0  0
  2  3  1  0  0  0  0
  3  4  1  0  0  0  0
  4  5  1  0  0  0  0
  5  1  1  0  0  0  0
  1  6  1  1  0  0  0
  3  7  1  1  0  0  0
  7  8  1  0  0  0  0
  4  9  1  6  0  0  0
  5 10  1  6  0  0  0
  6 11  1  0  0  0  0
 11 12  2  0  0  0  0
 12 13  1  0  0  0  0
 13 14  2  0  0  0  0
 14  6  1  0  0  0  0
 11 15  1  0  0  0  0
 12 16  1  0  0  0  0
 16 17  1  0  0  0  0
 16 18  2  0  0  0  0
M  END
>  <Mol_ID> (90)
2370

>  <Formula> (90)
C9H13N3O6

>  <MolWeight> (90)
259.21602

>  <Cat> (90)
S1384

>  <Name> (90)
Mizoribine (Bredinin)

>  <Synonyms> (90)
HE 69

>  <Target> (90)
DNA/RNA Synthesis

>  <Form> (90)
Free Base

>  <CAS> (90)
50924-49-7

>  <URL> (90)
http://www.selleckchem.com/products/Mizoribine.html

$$$$

csChFnd80/01042310162D

 47 52  0  0  0  0  0  0  0  0999 V2000
    5.0095    7.0737    0.0000 S   0  0  0  0  0  0  0  0  0  0  0  0
    5.0095    5.6785    0.0000 O   0  0  0  0  0  0  0  0  0  0  0  0
    5.0095    8.4688    0.0000 O   0  0  0  0  0  0  0  0  0  0  0  0
    3.6144    7.0737    0.0000 O   0  0  0  0  0  0  0  0  0  0  0  0
    6.4047    7.0737    0.0000 O   0  0  0  0  0  0  0  0  0  0  0  0
    2.3455   12.3639    0.0000 C   0  0  2  0  0  0  0  0  0  0  0  0
    2.6355   13.7286    0.0000 C   0  0  0  0  0  0  0  0  0  0  0  0
    4.0230   13.8744    0.0000 C   0  0  0  0  0  0  0  0  0  0  0  0
    4.5905   12.5999    0.0000 C   0  0  1  0  0  0  0  0  0  0  0  0
    3.5537   11.6664    0.0000 C   0  0  0  0  0  0  0  0  0  0  0  0
    1.0709   11.7965    0.0000 C   0  0  0  0  0  0  0  0  0  0  0  0
   -0.0578   12.6165    0.0000 O   0  0  0  0  0  0  0  0  0  0  0  0
    7.9101   11.1811    0.0000 N   0  0  0  0  0  0  0  0  0  0  0  0
    6.5226   11.0353    0.0000 C   0  0  0  0  0  0  0  0  0  0  0  0
    5.9552   12.3098    0.0000 N   0  0  0  0  0  0  0  0  0  0  0  0
    6.9920   13.2434    0.0000 C   0  0  0  0  0  0  0  0  0  0  0  0
    6.9920   14.6385    0.0000 N   0  0  0  0  0  0  0  0  0  0  0  0
    8.2002   15.3361    0.0000 C   0  0  0  0  0  0  0  0  0  0  0  0
    9.4084   14.6385    0.0000 N   0  0  0  0  0  0  0  0  0  0  0  0
    9.4084   13.2434    0.0000 C   0  0  0  0  0  0  0  0  0  0  0  0
    8.2002   12.5458    0.0000 C   0  0  0  0  0  0  0  0  0  0  0  0
   10.6167   12.5458    0.0000 N   0  0  0  0  0  0  0  0  0  0  0  0
   11.8249   13.2434    0.0000 C   0  0  0  0  0  0  0  0  0  0  0  0
   12.5225   14.4516    0.0000 C   0  0  0  0  0  0  0  0  0  0  0  0
   13.2200   13.2434    0.0000 C   0  0  0  0  0  0  0  0  0  0  0  0
    8.2002   16.7313    0.0000 N   0  0  0  0  0  0  0  0  0  0  0  0
    2.3455    5.3882    0.0000 C   0  0  2  0  0  0  0  0  0  0  0  0
    2.6355    6.7529    0.0000 C   0  0  0  0  0  0  0  0  0  0  0  0
    4.0230    6.8987    0.0000 C   0  0  0  0  0  0  0  0  0  0  0  0
    4.5905    5.6242    0.0000 C   0  0  1  0  0  0  0  0  0  0  0  0
    3.5537    4.6906    0.0000 C   0  0  0  0  0  0  0  0  0  0  0  0
    1.0709    4.8207    0.0000 C   0  0  0  0  0  0  0  0  0  0  0  0
   -0.0578    5.6408    0.0000 O   0  0  0  0  0  0  0  0  0  0  0  0
    7.9101    4.2054    0.0000 N   0  0  0  0  0  0  0  0  0  0  0  0
    6.5226    4.0596    0.0000 C   0  0  0  0  0  0  0  0  0  0  0  0
    5.9552    5.3341    0.0000 N   0  0  0  0  0  0  0  0  0  0  0  0
    6.9920    6.2676    0.0000 C   0  0  0  0  0  0  0  0  0  0  0  0
    6.9920    7.6628    0.0000 N   0  0  0  0  0  0  0  0  0  0  0  0
    8.2002    8.3604    0.0000 C   0  0  0  0  0  0  0  0  0  0  0  0
    9.4084    7.6628    0.0000 N   0  0  0  0  0  0  0  0  0  0  0  0
    9.4084    6.2676    0.0000 C   0  0  0  0  0  0  0  0  0  0  0  0
    8.2002    5.5700    0.0000 C   0  0  0  0  0  0  0  0  0  0  0  0
   10.6167    5.5700    0.0000 N   0  0  0  0  0  0  0  0  0  0  0  0
   11.8249    6.2676    0.0000 C   0  0  0  0  0  0  0  0  0  0  0  0
   12.5225    7.4759    0.0000 C   0  0  0  0  0  0  0  0  0  0  0  0
   13.2200    6.2676    0.0000 C   0  0  0  0  0  0  0  0  0  0  0  0
    8.2002    9.7555    0.0000 N   0  0  0  0  0  0  0  0  0  0  0  0
  1  2  2  0  0  0  0
  1  3  2  0  0  0  0
  1  4  1  0  0  0  0
  1  5  1  0  0  0  0
  6  7  1  0  0  0  0
  7  8  2  0  0  0  0
  8  9  1  0  0  0  0
  9 10  1  0  0  0  0
  6 10  1  0  0  0  0
  6 11  1  6  0  0  0
 11 12  1  0  0  0  0
 13 14  2  0  0  0  0
 14 15  1  0  0  0  0
 15 16  1  0  0  0  0
 16 17  1  0  0  0  0
 17 18  2  0  0  0  0
 18 19  1  0  0  0  0
 19 20  2  0  0  0  0
 20 21  1  0  0  0  0
 13 21  1  0  0  0  0
 16 21  2  0  0  0  0
 23 24  1  0  0  0  0
 24 25  1  0  0  0  0
 23 25  1  0  0  0  0
 22 23  1  0  0  0  0
 20 22  1  0  0  0  0
 18 26  1  0  0  0  0
  9 15  1  6  0  0  0
 27 28  1  0  0  0  0
 28 29  2  0  0  0  0
 29 30  1  0  0  0  0
 30 31  1  0  0  0  0
 27 31  1  0  0  0  0
 27 32  1  6  0  0  0
 32 33  1  0  0  0  0
 34 35  2  0  0  0  0
 35 36  1  0  0  0  0
 36 37  1  0  0  0  0
 37 38  1  0  0  0  0
 38 39  2  0  0  0  0
 39 40  1  0  0  0  0
 40 41  2  0  0  0  0
 41 42  1  0  0  0  0
 34 42  1  0  0  0  0
 37 42  2  0  0  0  0
 44 45  1  0  0  0  0
 45 46  1  0  0  0  0
 44 46  1  0  0  0  0
 43 44  1  0  0  0  0
 41 43  1  0  0  0  0
 39 47  1  0  0  0  0
 30 36  1  6  0  0  0
M  END
>  <Mol_ID> (91)
2383

>  <Formula> (91)
C28H38N12O6S

>  <MolWeight> (91)
670.74312

>  <Cat> (91)
S3165

>  <Name> (91)
Abacavir sulfate

>  <Synonyms> (91)
N/A 

>  <Target> (91)
Reverse Transcriptase

>  <Form> (91)
Sulfate

>  <CAS> (91)
188062-50-2

>  <URL> (91)
http://www.selleckchem.com/products/abacavir-sulfate.html

$$$$
DEPOCYT (cytarabine).cdx
csChFnd80/01042310162D

 17 18  0  0  0  0  0  0  0  0999 V2000
    5.6315    5.0555    0.0000 C   0  0  0  0  0  0  0  0  0  0  0  0
    5.6315    3.6555    0.0000 N   0  0  0  0  0  0  0  0  0  0  0  0
    6.8440    2.9555    0.0000 C   0  0  0  0  0  0  0  0  0  0  0  0
    8.0564    3.6555    0.0000 C   0  0  0  0  0  0  0  0  0  0  0  0
    8.0564    5.0555    0.0000 C   0  0  0  0  0  0  0  0  0  0  0  0
    6.8440    5.7555    0.0000 N   0  0  0  0  0  0  0  0  0  0  0  0
    4.4233    5.7531    0.0000 O   0  0  0  0  0  0  0  0  0  0  0  0
    9.2646    5.7531    0.0000 N   0  0  0  0  0  0  0  0  0  0  0  0
    4.4233    2.9579    0.0000 C   0  0  2  0  0  0  0  0  0  0  0  0
    3.1443    3.5274    0.0000 O   0  0  0  0  0  0  0  0  0  0  0  0
    2.2075    2.4870    0.0000 C   0  0  1  0  0  0  0  0  0  0  0  0
    2.9075    1.2745    0.0000 C   0  0  2  0  0  0  0  0  0  0  0  0
    4.2769    1.5656    0.0000 C   0  0  2  0  0  0  0  0  0  0  0  0
    0.8200    2.6328    0.0000 C   0  0  0  0  0  0  0  0  0  0  0  0
    5.3137    0.6321    0.0000 O   0  0  0  0  0  0  0  0  0  0  0  0
    2.3401    0.0000    0.0000 O   0  0  0  0  0  0  0  0  0  0  0  0
    0.0000    1.5041    0.0000 O   0  0  0  0  0  0  0  0  0  0  0  0
  1  2  1  0  0  0  0
  2  3  1  0  0  0  0
  3  4  2  0  0  0  0
  4  5  1  0  0  0  0
  5  6  2  0  0  0  0
  6  1  1  0  0  0  0
  1  7  2  0  0  0  0
  5  8  1  0  0  0  0
  9 10  1  0  0  0  0
 10 11  1  0  0  0  0
 11 12  1  0  0  0  0
 12 13  1  0  0  0  0
 13  9  1  0  0  0  0
  9  2  1  1  0  0  0
 11 14  1  1  0  0  0
 13 15  1  1  0  0  0
 12 16  1  6  0  0  0
 14 17  1  0  0  0  0
M  END
>  <Mol_ID> (92)
2389

>  <Formula> (92)
C9H13N3O5

>  <MolWeight> (92)
243.21662

>  <Cat> (92)
S1648

>  <Name> (92)
Cytarabine

>  <Synonyms> (92)
N/A 

>  <Target> (92)
Others

>  <Form> (92)
Free Base

>  <CAS> (92)
147-94-4

>  <URL> (92)
http://www.selleckchem.com/products/Cytarabine(Cytosar-U).html

$$$$
Adenine sulfate.cdx
csChFnd80/01042310162D

 25 26  0  0  0  0  0  0  0  0999 V2000
    6.7058    1.3951    0.0000 S   0  0  0  0  0  0  0  0  0  0  0  0
    6.7058    0.0000    0.0000 O   0  0  0  0  0  0  0  0  0  0  0  0
    6.7058    2.7903    0.0000 O   0  0  0  0  0  0  0  0  0  0  0  0
    5.3107    1.3951    0.0000 O   0  0  0  0  0  0  0  0  0  0  0  0
    8.1009    1.3951    0.0000 O   0  0  0  0  0  0  0  0  0  0  0  0
    4.2347    6.2049    0.0000 C   0  0  0  0  0  0  0  0  0  0  0  0
    4.2347    7.6005    0.0000 C   0  0  0  0  0  0  0  0  0  0  0  0
    3.0262    8.2983    0.0000 C   0  0  0  0  0  0  0  0  0  0  0  0
    1.8176    7.6005    0.0000 N   0  0  0  0  0  0  0  0  0  0  0  0
    1.8176    6.2049    0.0000 C   0  0  0  0  0  0  0  0  0  0  0  0
    3.0262    5.5071    0.0000 N   0  0  0  0  0  0  0  0  0  0  0  0
    5.5620    5.7737    0.0000 N   0  0  0  0  0  0  0  0  0  0  0  0
    6.3823    6.9027    0.0000 C   0  0  0  0  0  0  0  0  0  0  0  0
    5.5620    8.0318    0.0000 N   0  0  0  0  0  0  0  0  0  0  0  0
    3.0262    9.6938    0.0000 N   0  0  0  0  0  0  0  0  0  0  0  0
    4.2347    0.6227    0.0000 C   0  0  0  0  0  0  0  0  0  0  0  0
    4.2347    2.0182    0.0000 C   0  0  0  0  0  0  0  0  0  0  0  0
    3.0262    2.7160    0.0000 C   0  0  0  0  0  0  0  0  0  0  0  0
    1.8176    2.0182    0.0000 N   0  0  0  0  0  0  0  0  0  0  0  0
    1.8176    0.6227    0.0000 C   0  0  0  0  0  0  0  0  0  0  0  0
    3.0262   -0.0751    0.0000 N   0  0  0  0  0  0  0  0  0  0  0  0
    5.5620    0.1914    0.0000 N   0  0  0  0  0  0  0  0  0  0  0  0
    6.3823    1.3205    0.0000 C   0  0  0  0  0  0  0  0  0  0  0  0
    5.5620    2.4495    0.0000 N   0  0  0  0  0  0  0  0  0  0  0  0
    3.0262    4.1116    0.0000 N   0  0  0  0  0  0  0  0  0  0  0  0
  1  2  2  0  0  0  0
  1  3  2  0  0  0  0
  1  4  1  0  0  0  0
  1  5  1  0  0  0  0
  6  7  2  0  0  0  0
  7  8  1  0  0  0  0
  8  9  2  0  0  0  0
  9 10  1  0  0  0  0
 10 11  2  0  0  0  0
 11  6  1  0  0  0  0
  6 12  1  0  0  0  0
 12 13  2  0  0  0  0
 13 14  1  0  0  0  0
 14  7  1  0  0  0  0
  8 15  1  0  0  0  0
 16 17  2  0  0  0  0
 17 18  1  0  0  0  0
 18 19  2  0  0  0  0
 19 20  1  0  0  0  0
 20 21  2  0  0  0  0
 21 16  1  0  0  0  0
 16 22  1  0  0  0  0
 22 23  2  0  0  0  0
 23 24  1  0  0  0  0
 24 17  1  0  0  0  0
 18 25  1  0  0  0  0
M  END
>  <Mol_ID> (93)
2426

>  <Formula> (93)
C10H12N10O4S

>  <MolWeight> (93)
368.33188

>  <Cat> (93)
S1982

>  <Name> (93)
Adenine sulfate

>  <Synonyms> (93)
N/A

>  <Target> (93)
DNA/RNA Synthesis

>  <Form> (93)
Sulfate

>  <CAS> (93)
321-30-2

>  <URL> (93)
http://www.selleckchem.com/products/adenine-sulfate.html

$$$$
ATP disodium salt.cdx
csChFnd80/01042310162D

 33 33  0  0  0  0  0  0  0  0999 V2000
    7.1324    6.5883    0.0000 O   0  0  0  0  0  0  0  0  0  0  0  0
    5.9998    5.7654    0.0000 C   0  0  2  0  0  0  0  0  0  0  0  0
    6.4324    4.4339    0.0000 C   0  0  1  0  0  0  0  0  0  0  0  0
    7.8324    4.4339    0.0000 C   0  0  1  0  0  0  0  0  0  0  0  0
    8.2650    5.7654    0.0000 C   0  0  1  0  0  0  0  0  0  0  0  0
    9.5919    6.1965    0.0000 C   0  0  0  0  0  0  0  0  0  0  0  0
    4.6729    6.1965    0.0000 N   0  0  0  0  0  0  0  0  0  0  0  0
    5.6123    3.3052    0.0000 O   0  0  0  0  0  0  0  0  0  0  0  0
    8.6524    3.3052    0.0000 O   0  0  0  0  0  0  0  0  0  0  0  0
   10.8043    5.4965    0.0000 O   0  0  0  0  0  0  0  0  0  0  0  0
   12.0125    6.1941    0.0000 P   0  0  3  0  0  0  0  0  0  0  0  0
   13.2208    5.4965    0.0000 O   0  0  0  0  0  0  0  0  0  0  0  0
   14.4290    6.1941    0.0000 P   0  0  3  0  0  0  0  0  0  0  0  0
   11.3125    7.4065    0.0000 O   0  0  0  0  0  0  0  0  0  0  0  0
   12.7125    7.4065    0.0000 O   0  0  0  0  0  0  0  0  0  0  0  0
   14.4290    7.5941    0.0000 O   0  0  0  0  0  0  0  0  0  0  0  0
   15.8290    6.1941    0.0000 O   0  0  0  0  0  0  0  0  0  0  0  0
   15.6414    8.2941    0.0000 P   0  0  3  0  0  0  0  0  0  0  0  0
   16.8539    8.9941    0.0000 O   0  0  0  0  0  0  0  0  0  0  0  0
   14.9414    9.5065    0.0000 O   0  5  0  0  0  0  0  0  0  0  0  0
   16.3414    7.0817    0.0000 O   0  0  0  0  0  0  0  0  0  0  0  0
   14.7913    4.8418    0.0000 O   0  5  0  0  0  0  0  0  0  0  0  0
    4.2403    7.5280    0.0000 C   0  0  0  0  0  0  0  0  0  0  0  0
    2.8403    7.5280    0.0000 N   0  0  0  0  0  0  0  0  0  0  0  0
    2.4077    6.1965    0.0000 C   0  0  0  0  0  0  0  0  0  0  0  0
    3.5403    5.3736    0.0000 C   0  0  0  0  0  0  0  0  0  0  0  0
    1.1287    5.6271    0.0000 C   0  0  0  0  0  0  0  0  0  0  0  0
    0.9824    4.2348    0.0000 N   0  0  0  0  0  0  0  0  0  0  0  0
    2.1150    3.4119    0.0000 C   0  0  0  0  0  0  0  0  0  0  0  0
    3.3939    3.9813    0.0000 N   0  0  0  0  0  0  0  0  0  0  0  0
    0.0000    6.4471    0.0000 N   0  0  0  0  0  0  0  0  0  0  0  0
    9.1269    4.8162    0.0000 Na  0  3  0  0  0  0  0  0  0  0  0  0
    7.7270    4.8162    0.0000 Na  0  3  0  0  0  0  0  0  0  0  0  0
  1  2  1  0  0  0  0
  2  3  1  0  0  0  0
  3  4  1  0  0  0  0
  4  5  1  0  0  0  0
  5  1  1  0  0  0  0
  5  6  1  6  0  0  0
  2  7  1  6  0  0  0
  3  8  1  1  0  0  0
  4  9  1  1  0  0  0
  6 10  1  0  0  0  0
 10 11  1  0  0  0  0
 11 12  1  0  0  0  0
 12 13  1  0  0  0  0
 11 14  2  0  0  0  0
 11 15  1  0  0  0  0
 13 16  1  0  0  0  0
 13 17  2  0  0  0  0
 16 18  1  0  0  0  0
 18 19  1  0  0  0  0
 18 20  1  0  0  0  0
 18 21  2  0  0  0  0
 13 22  1  0  0  0  0
  7 23  1  0  0  0  0
 23 24  2  0  0  0  0
 24 25  1  0  0  0  0
 25 26  2  0  0  0  0
 26  7  1  0  0  0  0
 25 27  1  0  0  0  0
 27 28  2  0  0  0  0
 28 29  1  0  0  0  0
 29 30  2  0  0  0  0
 30 26  1  0  0  0  0
 27 31  1  0  0  0  0
M  END
>  <Mol_ID> (94)
2427

>  <Formula> (94)
C10H14N5Na2O13P3

>  <MolWeight> (94)
551.144683

>  <Cat> (94)
S1985

>  <Name> (94)
ATP (Adenosine-Triphosphate)

>  <Synonyms> (94)
N/A 

>  <Target> (94)
Others

>  <Form> (94)
Disodium Salt

>  <CAS> (94)
987-65-5

>  <URL> (94)
http://www.selleckchem.com/products/atp-Adenosine-Triphosphate.html

$$$$
NADIDE.cdx
csChFnd80/01042310162D

 44 48  0  0  0  0  0  0  0  0999 V2000
    0.0000    5.4182    0.0000 N   0  0  0  0  0  0  0  0  0  0  0  0
    0.0000    4.0182    0.0000 C   0  0  0  0  0  0  0  0  0  0  0  0
    1.2124    3.3182    0.0000 N   0  0  0  0  0  0  0  0  0  0  0  0
    2.4249    4.0182    0.0000 C   0  0  0  0  0  0  0  0  0  0  0  0
    2.4249    5.4182    0.0000 C   0  0  0  0  0  0  0  0  0  0  0  0
    1.2124    6.1182    0.0000 C   0  0  0  0  0  0  0  0  0  0  0  0
    3.7564    3.5856    0.0000 N   0  0  0  0  0  0  0  0  0  0  0  0
    4.5793    4.7182    0.0000 C   0  0  0  0  0  0  0  0  0  0  0  0
    3.7564    5.8508    0.0000 N   0  0  0  0  0  0  0  0  0  0  0  0
    1.2124    7.5133    0.0000 N   0  0  0  0  0  0  0  0  0  0  0  0
    4.7463    2.5956    0.0000 C   0  0  1  0  0  0  0  0  0  0  0  0
    5.1086    1.2433    0.0000 C   0  0  1  0  0  0  0  0  0  0  0  0
    6.5067    1.1701    0.0000 C   0  0  1  0  0  0  0  0  0  0  0  0
    7.0084    2.4771    0.0000 C   0  0  2  0  0  0  0  0  0  0  0  0
    5.9204    3.3581    0.0000 O   0  0  0  0  0  0  0  0  0  0  0  0
    4.2307    0.1591    0.0000 O   0  0  0  0  0  0  0  0  0  0  0  0
    7.2666    0.0000    0.0000 O   0  0  0  0  0  0  0  0  0  0  0  0
    8.3560    2.8382    0.0000 C   0  0  0  0  0  0  0  0  0  0  0  0
    9.5685    2.1382    0.0000 O   0  0  0  0  0  0  0  0  0  0  0  0
   10.7767    2.8357    0.0000 P   0  0  3  0  0  0  0  0  0  0  0  0
   11.9849    2.1382    0.0000 O   0  0  0  0  0  0  0  0  0  0  0  0
   13.1932    2.8357    0.0000 P   0  0  3  0  0  0  0  0  0  0  0  0
   13.1932    4.2357    0.0000 O   0  0  0  0  0  0  0  0  0  0  0  0
   14.4056    4.9357    0.0000 C   0  0  0  0  0  0  0  0  0  0  0  0
   13.8932    1.6233    0.0000 O   0  0  0  0  0  0  0  0  0  0  0  0
   14.5932    2.8357    0.0000 O   0  5  0  0  0  0  0  0  0  0  0  0
   10.0767    4.0482    0.0000 O   0  0  0  0  0  0  0  0  0  0  0  0
   11.1391    4.1880    0.0000 O   0  0  0  0  0  0  0  0  0  0  0  0
   15.6180    4.2357    0.0000 C   0  0  2  0  0  0  0  0  0  0  0  0
   15.9804    2.8834    0.0000 C   0  0  2  0  0  0  0  0  0  0  0  0
   17.3785    2.8102    0.0000 C   0  0  2  0  0  0  0  0  0  0  0  0
   17.8802    4.1172    0.0000 C   0  0  1  0  0  0  0  0  0  0  0  0
   16.7922    4.9982    0.0000 O   0  0  0  0  0  0  0  0  0  0  0  0
   19.2278    4.4783    0.0000 N   0  3  0  0  0  0  0  0  0  0  0  0
   15.6180    1.5311    0.0000 O   0  0  0  0  0  0  0  0  0  0  0  0
   18.1383    1.6401    0.0000 O   0  0  0  0  0  0  0  0  0  0  0  0
   20.4402    3.7783    0.0000 C   0  0  0  0  0  0  0  0  0  0  0  0
   21.6527    4.4783    0.0000 C   0  0  0  0  0  0  0  0  0  0  0  0
   21.6527    5.8783    0.0000 C   0  0  0  0  0  0  0  0  0  0  0  0
   20.4402    6.5783    0.0000 C   0  0  0  0  0  0  0  0  0  0  0  0
   19.2278    5.8783    0.0000 C   0  0  0  0  0  0  0  0  0  0  0  0
   22.8609    3.7807    0.0000 C   0  0  0  0  0  0  0  0  0  0  0  0
   24.0691    4.4783    0.0000 N   0  0  0  0  0  0  0  0  0  0  0  0
   22.8609    2.3856    0.0000 O   0  0  0  0  0  0  0  0  0  0  0  0
  1  2  2  0  0  0  0
  2  3  1  0  0  0  0
  3  4  2  0  0  0  0
  4  5  1  0  0  0  0
  5  6  2  0  0  0  0
  6  1  1  0  0  0  0
  4  7  1  0  0  0  0
  7  8  1  0  0  0  0
  8  9  2  0  0  0  0
  9  5  1  0  0  0  0
  6 10  1  0  0  0  0
 11 12  1  0  0  0  0
 12 13  1  0  0  0  0
 13 14  1  0  0  0  0
 14 15  1  0  0  0  0
 15 11  1  0  0  0  0
 12 16  1  1  0  0  0
 13 17  1  1  0  0  0
 14 18  1  6  0  0  0
 18 19  1  0  0  0  0
 19 20  1  0  0  0  0
 20 21  1  0  0  0  0
 21 22  1  0  0  0  0
 22 23  1  0  0  0  0
 23 24  1  0  0  0  0
 22 25  2  0  0  0  0
 22 26  1  0  0  0  0
 20 27  2  0  0  0  0
 20 28  1  0  0  0  0
 29 24  1  1  0  0  0
 29 30  1  0  0  0  0
 30 31  1  0  0  0  0
 31 32  1  0  0  0  0
 32 33  1  0  0  0  0
 33 29  1  0  0  0  0
 32 34  1  1  0  0  0
 30 35  1  6  0  0  0
 31 36  1  6  0  0  0
 34 37  2  0  0  0  0
 37 38  1  0  0  0  0
 38 39  2  0  0  0  0
 39 40  1  0  0  0  0
 40 41  2  0  0  0  0
 41 34  1  0  0  0  0
 38 42  1  0  0  0  0
 42 43  1  0  0  0  0
 42 44  2  0  0  0  0
 11  7  1  6  0  0  0
M  END
>  <Mol_ID> (95)
2436

>  <Formula> (95)
C21H27N7O14P2

>  <MolWeight> (95)
663.425102

>  <Cat> (95)
S2518

>  <Name> (95)
NAD+

>  <Synonyms> (95)
N/A

>  <Target> (95)
Others

>  <Form> (95)
Free Base

>  <CAS> (95)
53-84-9

>  <URL> (95)
http://www.selleckchem.com/products/nad.html

$$$$
Dibutyryl-cAMP.cdx
csChFnd80/01042310162D

 33 36  0  0  0  0  0  0  0  0999 V2000
   12.3931    8.4614    0.0000 N   0  0  0  0  0  0  0  0  0  0  0  0
   12.3931    7.0607    0.0000 C   0  0  0  0  0  0  0  0  0  0  0  0
   11.1804    6.3579    0.0000 N   0  0  0  0  0  0  0  0  0  0  0  0
    9.9653    7.0607    0.0000 C   0  0  0  0  0  0  0  0  0  0  0  0
    9.9653    8.4614    0.0000 C   0  0  0  0  0  0  0  0  0  0  0  0
   11.1804    9.1617    0.0000 C   0  0  0  0  0  0  0  0  0  0  0  0
    8.6340    6.6276    0.0000 N   0  0  0  0  0  0  0  0  0  0  0  0
    7.8098    7.7610    0.0000 C   0  0  0  0  0  0  0  0  0  0  0  0
    8.6340    8.8945    0.0000 N   0  0  0  0  0  0  0  0  0  0  0  0
   11.1804   10.5624    0.0000 N   0  0  0  0  0  0  0  0  0  0  0  0
    5.5628    3.0193    0.0000 C   0  0  2  0  0  0  0  0  0  0  0  0
    7.9188    3.0193    0.0000 C   0  0  1  0  0  0  0  0  0  0  0  0
    8.6340    3.8410    0.0000 C   0  0  1  0  0  0  0  0  0  0  0  0
    6.7383    4.5438    0.0000 O   0  0  0  0  0  0  0  0  0  0  0  0
    4.8327    3.8410    0.0000 C   0  0  2  0  0  0  0  0  0  0  0  0
    7.9188    2.0938    0.0000 O   0  0  0  0  0  0  0  0  0  0  0  0
    5.5628    2.0938    0.0000 O   0  0  0  0  0  0  0  0  0  0  0  0
    4.8327    4.9645    0.0000 C   0  0  0  0  0  0  0  0  0  0  0  0
    3.6176    5.6673    0.0000 O   0  0  0  0  0  0  0  0  0  0  0  0
   12.3893   11.2604    0.0000 C   0  0  0  0  0  0  0  0  0  0  0  0
   13.5982   10.5624    0.0000 C   0  0  0  0  0  0  0  0  0  0  0  0
   14.8070   11.2604    0.0000 C   0  0  0  0  0  0  0  0  0  0  0  0
   12.3893   12.6562    0.0000 O   0  0  0  0  0  0  0  0  0  0  0  0
   16.0159   10.5624    0.0000 C   0  0  0  0  0  0  0  0  0  0  0  0
    9.1277    1.3959    0.0000 C   0  0  0  0  0  0  0  0  0  0  0  0
    9.1277    0.0000    0.0000 O   0  0  0  0  0  0  0  0  0  0  0  0
   10.3365    2.0938    0.0000 C   0  0  0  0  0  0  0  0  0  0  0  0
   11.5454    1.3959    0.0000 C   0  0  0  0  0  0  0  0  0  0  0  0
   12.7543    2.0938    0.0000 C   0  0  0  0  0  0  0  0  0  0  0  0
    2.3245    3.5604    0.0000 P   0  0  3  0  0  0  0  0  0  0  0  0
    0.9899    3.1511    0.0000 O   0  0  0  0  0  0  0  0  0  0  0  0
    0.0000    4.1411    0.0000 Na  0  0  0  0  0  0  0  0  0  0  0  0
    1.4698    4.6640    0.0000 O   0  0  0  0  0  0  0  0  0  0  0  0
  1  2  1  0  0  0  0
  2  3  2  0  0  0  0
  3  4  1  0  0  0  0
  4  5  2  0  0  0  0
  5  6  1  0  0  0  0
  1  6  2  0  0  0  0
  4  7  1  0  0  0  0
  7  8  1  0  0  0  0
  8  9  2  0  0  0  0
  5  9  1  0  0  0  0
  6 10  1  0  0  0  0
 11 12  1  0  0  0  0
 13 12  1  0  0  0  0
 13 14  1  0  0  0  0
 15 14  1  6  0  0  0
 15 11  1  0  0  0  0
 12 16  1  1  0  0  0
 11 17  1  1  0  0  0
 15 18  1  0  0  0  0
 13  7  1  1  0  0  0
 18 19  1  0  0  0  0
 10 20  1  0  0  0  0
 20 21  1  0  0  0  0
 21 22  1  0  0  0  0
 20 23  2  0  0  0  0
 22 24  1  0  0  0  0
 16 25  1  0  0  0  0
 25 26  2  0  0  0  0
 25 27  1  0  0  0  0
 27 28  1  0  0  0  0
 28 29  1  0  0  0  0
 19 30  1  0  0  0  0
 30 17  1  0  0  0  0
 30 31  1  0  0  0  0
 30 33  2  0  0  0  0
 31 32  1  0  0  0  0
M  CFW  16 BOND_GSTEREO 5
M  CFW  17 BOND_GSTEREO 5
M  END
>  <Mol_ID> (96)
2480

>  <Formula> (96)
C18H23N5NaO8P

>  <MolWeight> (96)
491.367451

>  <Cat> (96)
S7858

>  <Name> (96)
Dibutyryl-cAMP (Bucladesine)

>  <Synonyms> (96)
dbcAMP

>  <Target> (96)
PKA

>  <Form> (96)
sodium salt

>  <CAS> (96)
16980-89-5

>  <URL> (96)
http://www.selleckchem.com/products/dibutyryl-camp-bucladesine.html

$$$$
8-Bromo-cAMP.cdx
csChFnd80/01042310162D

 24 27  0  0  0  0  0  0  0  0999 V2000
   11.7109    6.6719    0.0000 N   0  0  0  0  0  0  0  0  0  0  0  0
   11.7109    5.2719    0.0000 C   0  0  0  0  0  0  0  0  0  0  0  0
   10.4989    4.5695    0.0000 N   0  0  0  0  0  0  0  0  0  0  0  0
    9.2844    5.2719    0.0000 C   0  0  0  0  0  0  0  0  0  0  0  0
    9.2844    6.6719    0.0000 C   0  0  0  0  0  0  0  0  0  0  0  0
   10.4989    7.3718    0.0000 C   0  0  0  0  0  0  0  0  0  0  0  0
    7.9538    4.8390    0.0000 N   0  0  0  0  0  0  0  0  0  0  0  0
    7.1300    5.9718    0.0000 C   0  0  0  0  0  0  0  0  0  0  0  0
    7.9538    7.1047    0.0000 N   0  0  0  0  0  0  0  0  0  0  0  0
   10.4989    8.7718    0.0000 N   0  0  0  0  0  0  0  0  0  0  0  0
    4.8842    1.2327    0.0000 C   0  0  2  0  0  0  0  0  0  0  0  0
    7.2390    1.2327    0.0000 C   0  0  1  0  0  0  0  0  0  0  0  0
    7.9538    2.0539    0.0000 C   0  0  1  0  0  0  0  0  0  0  0  0
    6.0591    2.7563    0.0000 O   0  0  0  0  0  0  0  0  0  0  0  0
    4.1545    2.0539    0.0000 C   0  0  2  0  0  0  0  0  0  0  0  0
    7.2390    0.3076    0.0000 O   0  0  0  0  0  0  0  0  0  0  0  0
    4.8842    0.3076    0.0000 O   0  0  0  0  0  0  0  0  0  0  0  0
    4.1545    3.1768    0.0000 C   0  0  0  0  0  0  0  0  0  0  0  0
    2.9401    3.8792    0.0000 O   0  0  0  0  0  0  0  0  0  0  0  0
    1.6476    1.7734    0.0000 P   0  0  3  0  0  0  0  0  0  0  0  0
    0.3138    1.3644    0.0000 O   0  0  0  0  0  0  0  0  0  0  0  0
    0.0000    0.0000    0.0000 Na  0  0  0  0  0  0  0  0  0  0  0  0
    0.7934    2.8765    0.0000 O   0  0  0  0  0  0  0  0  0  0  0  0
    5.7356    5.9717    0.0000 Br  0  0  0  0  0  0  0  0  0  0  0  0
  1  2  1  0  0  0  0
  2  3  2  0  0  0  0
  3  4  1  0  0  0  0
  4  5  2  0  0  0  0
  5  6  1  0  0  0  0
  1  6  2  0  0  0  0
  4  7  1  0  0  0  0
  7  8  1  0  0  0  0
  8  9  2  0  0  0  0
  5  9  1  0  0  0  0
  6 10  1  0  0  0  0
 11 12  1  0  0  0  0
 13 12  1  0  0  0  0
 13 14  1  0  0  0  0
 15 14  1  6  0  0  0
 15 11  1  0  0  0  0
 12 16  1  1  0  0  0
 11 17  1  1  0  0  0
 15 18  1  0  0  0  0
 13  7  1  1  0  0  0
 18 19  1  0  0  0  0
 19 20  1  0  0  0  0
 20 17  1  0  0  0  0
 20 21  1  0  0  0  0
 20 23  2  0  0  0  0
  8 24  1  0  0  0  0
 21 22  1  0  0  0  0
M  CFW  16 BOND_GSTEREO 5
M  CFW  17 BOND_GSTEREO 5
M  END
>  <Mol_ID> (97)
2483

>  <Formula> (97)
C10H10BrN5NaO6P

>  <MolWeight> (97)
430.083831

>  <Cat> (97)
S7857

>  <Name> (97)
8-Bromo-cAMP

>  <Synonyms> (97)
N/A

>  <Target> (97)
PKA

>  <Form> (97)
sodium salt

>  <CAS> (97)
76939-46-3

>  <URL> (97)
http://www.selleckchem.com/products/8-bromo-camp.html

$$$$
Bromodeoxyuridine.cdx
csChFnd80/01042310162D

 17 18  0  0  0  0  0  0  0  0999 V2000
    4.3020    1.4000    0.0000 C   0  0  0  0  0  0  0  0  0  0  0  0
    2.6161    1.4000    0.0000 C   0  0  2  0  0  0  0  0  0  0  0  0
    2.0951    1.9127    0.0000 C   0  0  2  0  0  0  0  0  0  0  0  0
    3.4611    2.2286    0.0000 O   0  0  0  0  0  0  0  0  0  0  0  0
    4.8250    1.9127    0.0000 C   0  0  1  0  0  0  0  0  0  0  0  0
    2.6161    0.0000    0.0000 O   0  0  0  0  0  0  0  0  0  0  0  0
    4.8250    3.3127    0.0000 N   0  0  0  0  0  0  0  0  0  0  0  0
    6.0374    4.0127    0.0000 C   0  0  0  0  0  0  0  0  0  0  0  0
    6.0374    5.4127    0.0000 C   0  0  0  0  0  0  0  0  0  0  0  0
    4.8250    6.1127    0.0000 C   0  0  0  0  0  0  0  0  0  0  0  0
    3.6126    5.4127    0.0000 N   0  0  0  0  0  0  0  0  0  0  0  0
    3.6126    4.0127    0.0000 C   0  0  0  0  0  0  0  0  0  0  0  0
    4.8250    7.5127    0.0000 O   0  0  0  0  0  0  0  0  0  0  0  0
    7.2499    6.1127    0.0000 Br  0  0  0  0  0  0  0  0  0  0  0  0
    1.3951    3.1252    0.0000 C   0  0  0  0  0  0  0  0  0  0  0  0
    0.0000    3.1252    0.0000 O   0  0  0  0  0  0  0  0  0  0  0  0
    2.4043    3.3152    0.0000 O   0  0  0  0  0  0  0  0  0  0  0  0
  1  2  1  1  0  0  0
  3  2  1  1  0  0  0
  3  4  1  0  0  0  0
  4  5  1  0  0  0  0
  5  1  1  1  0  0  0
  2  6  1  0  0  0  0
  5  7  1  0  0  0  0
  7  8  1  0  0  0  0
  8  9  2  0  0  0  0
  9 10  1  0  0  0  0
 10 11  1  0  0  0  0
 11 12  1  0  0  0  0
 12  7  1  0  0  0  0
 10 13  2  0  0  0  0
  9 14  1  0  0  0  0
  3 15  1  0  0  0  0
 15 16  1  0  0  0  0
 12 17  2  0  0  0  0
M  CFW   0 BOND_GSTEREO 5
M  END
>  <Mol_ID> (98)
2493

>  <Formula> (98)
C9H11BrN2O5

>  <MolWeight> (98)
307.09804

>  <Cat> (98)
S7918

>  <Name> (98)
Bromodeoxyuridine (BrdU)

>  <Synonyms> (98)
N/A

>  <Target> (98)
DNA/RNA Synthesis

>  <Form> (98)
Free Base

>  <CAS> (98)
59-14-3

>  <URL> (98)
http://www.selleckchem.com/products/bromodeoxyuridine-brdu.html

$$$$
SGC 0946.cdx
csChFnd80/01042310162D

 40 43  0  0  0  0  0  0  0  0999 V2000
    2.4248    2.1071    0.0000 C   0  0  0  0  0  0  0  0  0  0  0  0
    2.4248    0.7024    0.0000 C   0  0  0  0  0  0  0  0  0  0  0  0
    3.6414    0.0000    0.0000 C   0  0  0  0  0  0  0  0  0  0  0  0
    4.8579    0.7024    0.0000 C   0  0  0  0  0  0  0  0  0  0  0  0
    4.8579    2.1071    0.0000 C   0  0  0  0  0  0  0  0  0  0  0  0
    3.6414    2.8094    0.0000 C   0  0  0  0  0  0  0  0  0  0  0  0
    1.2124    2.8071    0.0000 C   0  0  0  0  0  0  0  0  0  0  0  0
    0.5124    1.5947    0.0000 C   0  0  0  0  0  0  0  0  0  0  0  0
    1.9124    4.0195    0.0000 C   0  0  0  0  0  0  0  0  0  0  0  0
    0.0000    3.5071    0.0000 C   0  0  0  0  0  0  0  0  0  0  0  0
    6.0704    0.0024    0.0000 N   0  0  0  0  0  0  0  0  0  0  0  0
    7.2827    0.7023    0.0000 C   0  0  0  0  0  0  0  0  0  0  0  0
    7.2827    2.1023    0.0000 O   0  0  0  0  0  0  0  0  0  0  0  0
    8.4951    0.0024    0.0000 N   0  0  0  0  0  0  0  0  0  0  0  0
    9.7075    0.7023    0.0000 C   0  0  0  0  0  0  0  0  0  0  0  0
    9.7075    2.1023    0.0000 C   0  0  0  0  0  0  0  0  0  0  0  0
   10.9199    2.8023    0.0000 C   0  0  0  0  0  0  0  0  0  0  0  0
   10.9199    4.2022    0.0000 N   0  0  0  0  0  0  0  0  0  0  0  0
    9.7075    4.9022    0.0000 C   0  0  0  0  0  0  0  0  0  0  0  0
    8.4951    4.2022    0.0000 C   0  0  0  0  0  0  0  0  0  0  0  0
    9.7075    6.3021    0.0000 C   0  0  0  0  0  0  0  0  0  0  0  0
   12.1323    4.9022    0.0000 C   0  0  0  0  0  0  0  0  0  0  0  0
   13.3797    4.2666    0.0000 C   0  0  2  0  0  0  0  0  0  0  0  0
   13.5994    2.8791    0.0000 C   0  0  2  0  0  0  0  0  0  0  0  0
   14.9869    2.6593    0.0000 C   0  0  2  0  0  0  0  0  0  0  0  0
   15.6246    3.9110    0.0000 C   0  0  1  0  0  0  0  0  0  0  0  0
   14.6313    4.9042    0.0000 O   0  0  0  0  0  0  0  0  0  0  0  0
   17.0074    4.1300    0.0000 N   0  0  0  0  0  0  0  0  0  0  0  0
   12.6095    1.8892    0.0000 O   0  0  0  0  0  0  0  0  0  0  0  0
   15.6224    1.4120    0.0000 O   0  0  0  0  0  0  0  0  0  0  0  0
   18.0007    3.1366    0.0000 C   0  0  0  0  0  0  0  0  0  0  0  0
   19.2524    3.7744    0.0000 C   0  0  0  0  0  0  0  0  0  0  0  0
   19.0325    5.1619    0.0000 C   0  0  0  0  0  0  0  0  0  0  0  0
   17.6451    5.3817    0.0000 C   0  0  0  0  0  0  0  0  0  0  0  0
   17.9273    1.7338    0.0000 N   0  0  0  0  0  0  0  0  0  0  0  0
   19.1054    0.9687    0.0000 C   0  0  0  0  0  0  0  0  0  0  0  0
   20.3570    1.6065    0.0000 N   0  0  0  0  0  0  0  0  0  0  0  0
   20.4306    3.0093    0.0000 C   0  0  0  0  0  0  0  0  0  0  0  0
   21.6779    3.6448    0.0000 N   0  0  0  0  0  0  0  0  0  0  0  0
   20.0224    6.1518    0.0000 Br  0  0  0  0  0  0  0  0  0  0  0  0
  1  2  2  0  0  0  0
  2  3  1  0  0  0  0
  3  4  2  0  0  0  0
  4  5  1  0  0  0  0
  5  6  2  0  0  0  0
  6  1  1  0  0  0  0
  1  7  1  0  0  0  0
  7  8  1  0  0  0  0
  7  9  1  0  0  0  0
  7 10  1  0  0  0  0
  4 11  1  0  0  0  0
 11 12  1  0  0  0  0
 12 13  2  0  0  0  0
 12 14  1  0  0  0  0
 14 15  1  0  0  0  0
 15 16  1  0  0  0  0
 16 17  1  0  0  0  0
 17 18  1  0  0  0  0
 18 19  1  0  0  0  0
 19 20  1  0  0  0  0
 19 21  1  0  0  0  0
 18 22  1  0  0  0  0
 23 22  1  1  0  0  0
 23 24  1  0  0  0  0
 24 25  1  0  0  0  0
 25 26  1  0  0  0  0
 26 27  1  0  0  0  0
 27 23  1  0  0  0  0
 26 28  1  1  0  0  0
 24 29  1  6  0  0  0
 25 30  1  6  0  0  0
 28 31  1  0  0  0  0
 31 32  2  0  0  0  0
 32 33  1  0  0  0  0
 33 34  2  0  0  0  0
 34 28  1  0  0  0  0
 31 35  1  0  0  0  0
 35 36  2  0  0  0  0
 36 37  1  0  0  0  0
 37 38  2  0  0  0  0
 38 32  1  0  0  0  0
 38 39  1  0  0  0  0
 33 40  1  0  0  0  0
M  END
>  <Mol_ID> (99)
2600

>  <Formula> (99)
C28H40BrN7O4

>  <MolWeight> (99)
618.5657

>  <Cat> (99)
S7079

>  <Name> (99)
SGC 0946

>  <Synonyms> (99)
N/A

>  <Target> (99)
Histone Methyltransferase

>  <Form> (99)
Free Base

>  <URL> (99)
http://www.selleckchem.com/products/sgc-0946.html

$$$$
Rilpivirine.cdx
csChFnd80/01042310162D

 28 30  0  0  0  0  0  0  0  0999 V2000
   11.2000    4.8498    0.0000 N   0  0  0  0  0  0  0  0  0  0  0  0
   11.9000    6.0623    0.0000 C   0  0  0  0  0  0  0  0  0  0  0  0
    7.7000    3.6373    0.0000 C   0  0  0  0  0  0  0  0  0  0  0  0
    9.8000    4.8498    0.0000 C   0  0  0  0  0  0  0  0  0  0  0  0
    9.1000    3.6373    0.0000 N   0  0  0  0  0  0  0  0  0  0  0  0
    7.0000    4.8498    0.0000 C   0  0  0  0  0  0  0  0  0  0  0  0
    7.0000    2.4250    0.0000 C   0  0  0  0  0  0  0  0  0  0  0  0
    0.0000    2.4250    0.0000 N   0  0  0  0  0  0  0  0  0  0  0  0
   16.8000    0.0000    0.0000 N   0  0  0  0  0  0  0  0  0  0  0  0
    1.4000    2.4250    0.0000 C   0  0  0  0  0  0  0  0  0  0  0  0
   11.2000    7.2746    0.0000 N   0  0  0  0  0  0  0  0  0  0  0  0
   16.1000    1.2123    0.0000 C   0  0  0  0  0  0  0  0  0  0  0  0
   13.3000    6.0623    0.0000 N   0  0  0  0  0  0  0  0  0  0  0  0
    5.6000    4.8498    0.0000 C   0  0  0  0  0  0  0  0  0  0  0  0
    5.6000    2.4250    0.0000 C   0  0  0  0  0  0  0  0  0  0  0  0
    4.9000    3.6373    0.0000 C   0  0  0  0  0  0  0  0  0  0  0  0
    9.1000    6.0623    0.0000 C   0  0  0  0  0  0  0  0  0  0  0  0
    2.8000    2.4250    0.0000 C   0  0  0  0  0  0  0  0  0  0  0  0
    3.5000    3.6373    0.0000 C   0  0  0  0  0  0  0  0  0  0  0  0
   15.4000    2.4250    0.0000 C   0  0  0  0  0  0  0  0  0  0  0  0
   14.0000    4.8498    0.0000 C   0  0  0  0  0  0  0  0  0  0  0  0
    9.8000    7.2746    0.0000 C   0  0  0  0  0  0  0  0  0  0  0  0
   16.1000    3.6373    0.0000 C   0  0  0  0  0  0  0  0  0  0  0  0
   14.0000    2.4250    0.0000 C   0  0  0  0  0  0  0  0  0  0  0  0
   15.4000    4.8498    0.0000 C   0  0  0  0  0  0  0  0  0  0  0  0
   13.3000    3.6373    0.0000 C   0  0  0  0  0  0  0  0  0  0  0  0
    7.7000    1.2123    0.0000 C   0  0  0  0  0  0  0  0  0  0  0  0
    7.7000    6.0623    0.0000 C   0  0  0  0  0  0  0  0  0  0  0  0
  2  1  1  0  0  0  0
  4  1  2  0  0  0  0
 11  2  2  0  0  0  0
 13  2  1  0  0  0  0
  3  5  1  0  0  0  0
  6  3  2  0  0  0  0
  7  3  1  0  0  0  0
  5  4  1  0  0  0  0
 17  4  1  0  0  0  0
 14  6  1  0  0  0  0
 28  6  1  0  0  0  0
 15  7  2  0  0  0  0
 27  7  1  0  0  0  0
  8 10  3  0  0  0  0
  9 12  3  0  0  0  0
 10 18  1  0  0  0  0
 11 22  1  0  0  0  0
 12 20  1  0  0  0  0
 21 13  1  0  0  0  0
 16 14  2  0  0  0  0
 16 15  1  0  0  0  0
 19 16  1  0  0  0  0
 22 17  2  0  0  0  0
 18 19  2  0  0  0  0
 20 24  1  0  0  0  0
 23 20  2  0  0  0  0
 25 21  2  0  0  0  0
 26 21  1  0  0  0  0
 23 25  1  0  0  0  0
 24 26  2  0  0  0  0
M  END
>  <Mol_ID> (100)
2689

>  <Formula> (100)
C22H18N6

>  <MolWeight> (100)
366.41852

>  <Cat> (100)
S7303

>  <Name> (100)
Rilpivirine

>  <Synonyms> (100)
R278474, TMC278

>  <Target> (100)
Reverse Transcriptase

>  <Form> (100)
Free Base

>  <CAS> (100)
500287-72-9

>  <URL> (100)
http://www.selleckchem.com/products/rilpivirine.html

$$$$
LM-3264 Triapine.cdx
csChFnd80/01042310162D

 13 13  0  0  0  0  0  0  0  0999 V2000
    2.4249    2.1000    0.0000 C   0  0  0  0  0  0  0  0  0  0  0  0
    1.2124    2.8000    0.0000 C   0  0  0  0  0  0  0  0  0  0  0  0
    0.0000    2.1000    0.0000 C   0  0  0  0  0  0  0  0  0  0  0  0
    0.0000    0.7000    0.0000 C   0  0  0  0  0  0  0  0  0  0  0  0
    1.2124    0.0000    0.0000 C   0  0  0  0  0  0  0  0  0  0  0  0
    2.4249    0.7000    0.0000 N   0  0  0  0  0  0  0  0  0  0  0  0
    3.6373    2.8000    0.0000 C   0  0  0  0  0  0  0  0  0  0  0  0
    4.8497    2.1000    0.0000 N   0  0  0  0  0  0  0  0  0  0  0  0
    6.0622    2.8000    0.0000 N   0  0  0  0  0  0  0  0  0  0  0  0
    7.2746    2.1000    0.0000 C   0  0  0  0  0  0  0  0  0  0  0  0
    7.2746    0.7000    0.0000 S   0  0  0  0  0  0  0  0  0  0  0  0
    8.4871    2.8000    0.0000 N   0  0  0  0  0  0  0  0  0  0  0  0
    1.2124    4.2000    0.0000 N   0  0  0  0  0  0  0  0  0  0  0  0
  1  2  1  0  0  0  0
  2  3  2  0  0  0  0
  3  4  1  0  0  0  0
  4  5  2  0  0  0  0
  5  6  1  0  0  0  0
  1  6  2  0  0  0  0
  1  7  1  0  0  0  0
  8  9  1  0  0  0  0
  9 10  1  0  0  0  0
 10 11  2  0  0  0  0
 10 12  1  0  0  0  0
  7  8  2  0  0  0  0
  2 13  1  0  0  0  0
M  END
>  <Mol_ID> (101)
2732

>  <Formula> (101)
C7H9N5S

>  <MolWeight> (101)
195.24486

>  <Cat> (101)
S7470

>  <Name> (101)
Triapine

>  <Synonyms> (101)
3-AP

>  <Target> (101)
DNA/RNA Synthesis

>  <Form> (101)
Free Base

>  <CAS> (101)
236392-56-6

>  <URL> (101)
http://www.selleckchem.com/products/triapine.html

$$$$
Puromycin dihydrochloride.cdx
csChFnd80/01042310162D

 36 37  0  0  0  0  0  0  0  0999 V2000
    9.7222   32.6282    0.0000 Cl  0  0  0  0  0  0  0  0  0  0  0  0
    0.0000   32.6282    0.0000 Cl  0  0  0  0  0  0  0  0  0  0  0  0
   31.6633    8.4643    0.0000 N   0  0  0  0  0  0  0  0  0  0  0  0
   31.6633    7.0643    0.0000 C   0  0  0  0  0  0  0  0  0  0  0  0
   30.4513    6.3618    0.0000 N   0  0  0  0  0  0  0  0  0  0  0  0
   29.2368    7.0643    0.0000 C   0  0  0  0  0  0  0  0  0  0  0  0
   29.2368    8.4643    0.0000 C   0  0  0  0  0  0  0  0  0  0  0  0
   30.4513    9.1642    0.0000 C   0  0  0  0  0  0  0  0  0  0  0  0
   27.9062    6.6314    0.0000 N   0  0  0  0  0  0  0  0  0  0  0  0
   27.0824    7.7642    0.0000 C   0  0  0  0  0  0  0  0  0  0  0  0
   27.9062    8.8971    0.0000 N   0  0  0  0  0  0  0  0  0  0  0  0
   30.4513   10.5642    0.0000 N   0  0  0  0  0  0  0  0  0  0  0  0
   24.8366    3.0250    0.0000 C   0  0  2  0  0  0  0  0  0  0  0  0
   27.1914    3.0250    0.0000 C   0  0  1  0  0  0  0  0  0  0  0  0
   27.9062    3.8463    0.0000 C   0  0  1  0  0  0  0  0  0  0  0  0
   26.0759    4.5982    0.0000 O   0  0  0  0  0  0  0  0  0  0  0  0
   24.1070    3.8463    0.0000 C   0  0  2  0  0  0  0  0  0  0  0  0
   27.1914    2.1000    0.0000 O   0  0  0  0  0  0  0  0  0  0  0  0
   24.8366    2.1000    0.0000 N   0  0  0  0  0  0  0  0  0  0  0  0
   29.2389   11.2642    0.0000 C   0  0  0  0  0  0  0  0  0  0  0  0
   31.6638   11.2642    0.0000 C   0  0  0  0  0  0  0  0  0  0  0  0
   24.1070    5.2463    0.0000 C   0  0  0  0  0  0  0  0  0  0  0  0
   22.8945    5.9463    0.0000 O   0  0  0  0  0  0  0  0  0  0  0  0
   23.6242    1.4000    0.0000 C   0  0  0  0  0  0  0  0  0  0  0  0
   22.4118    2.1000    0.0000 C   0  0  2  0  0  0  0  0  0  0  0  0
   21.1993    1.4000    0.0000 C   0  0  0  0  0  0  0  0  0  0  0  0
   19.9869    2.1000    0.0000 C   0  0  0  0  0  0  0  0  0  0  0  0
   23.6242    0.0000    0.0000 O   0  0  0  0  0  0  0  0  0  0  0  0
   19.9869    3.5000    0.0000 C   0  0  0  0  0  0  0  0  0  0  0  0
   18.7745    4.2000    0.0000 C   0  0  0  0  0  0  0  0  0  0  0  0
   17.5620    3.5000    0.0000 C   0  0  0  0  0  0  0  0  0  0  0  0
   17.5620    2.1000    0.0000 C   0  0  0  0  0  0  0  0  0  0  0  0
   18.7745    1.4000    0.0000 C   0  0  0  0  0  0  0  0  0  0  0  0
   16.3496    4.2000    0.0000 O   0  0  0  0  0  0  0  0  0  0  0  0
   15.1372    3.5000    0.0000 C   0  0  0  0  0  0  0  0  0  0  0  0
   22.4118    3.4951    0.0000 N   0  0  0  0  0  0  0  0  0  0  0  0
  3  4  1  0  0  0  0
  4  5  2  0  0  0  0
  5  6  1  0  0  0  0
  6  7  2  0  0  0  0
  7  8  1  0  0  0  0
  3  8  2  0  0  0  0
  6  9  1  0  0  0  0
  9 10  1  0  0  0  0
 10 11  2  0  0  0  0
  7 11  1  0  0  0  0
  8 12  1  0  0  0  0
 13 14  1  1  0  0  0
 15 14  1  1  0  0  0
 15 16  1  0  0  0  0
 16 17  1  0  0  0  0
 17 13  1  1  0  0  0
 14 18  1  0  0  0  0
 13 19  1  0  0  0  0
  9 15  1  0  0  0  0
 12 20  1  0  0  0  0
 12 21  1  0  0  0  0
 17 22  1  0  0  0  0
 22 23  1  0  0  0  0
 19 24  1  0  0  0  0
 24 25  1  0  0  0  0
 25 26  1  0  0  0  0
 26 27  1  0  0  0  0
 24 28  2  0  0  0  0
 27 29  2  0  0  0  0
 29 30  1  0  0  0  0
 30 31  2  0  0  0  0
 31 32  1  0  0  0  0
 32 33  2  0  0  0  0
 33 27  1  0  0  0  0
 31 34  1  0  0  0  0
 34 35  1  0  0  0  0
 25 36  1  6  0  0  0
M  CFW  11 BOND_GSTEREO 5
M  END
>  <Mol_ID> (102)
2810

>  <Formula> (102)
C22H31Cl2N7O5

>  <MolWeight> (102)
544.43144

>  <Cat> (102)
S7417

>  <Name> (102)
Puromycin 2HCl

>  <Synonyms> (102)
N/A

>  <Target> (102)
Antifection

>  <Form> (102)
Dihydrochloride

>  <CAS> (102)
58-58-2

>  <URL> (102)
http://www.selleckchem.com/products/Puromycin-2HCl.html

$$$$
Blasticidin S hydrochloride.cdx
csChFnd80/01042310162D

 31 31  0  0  0  0  0  0  0  0999 V2000
    1.2124    2.3171    0.0000 N   0  0  0  0  0  0  0  0  0  0  0  0
    1.2124    0.9171    0.0000 C   0  0  0  0  0  0  0  0  0  0  0  0
    2.4249    0.2171    0.0000 C   0  0  0  0  0  0  0  0  0  0  0  0
    3.6373    0.9171    0.0000 C   0  0  0  0  0  0  0  0  0  0  0  0
    3.6373    2.3171    0.0000 N   0  0  0  0  0  0  0  0  0  0  0  0
    2.4249    3.0171    0.0000 C   0  0  0  0  0  0  0  0  0  0  0  0
    2.4249    4.4171    0.0000 O   0  0  0  0  0  0  0  0  0  0  0  0
    0.0000    0.2171    0.0000 N   0  0  0  0  0  0  0  0  0  0  0  0
    4.8497    3.0171    0.0000 C   0  0  1  0  0  0  0  0  0  0  0  0
    6.0622    2.3171    0.0000 C   0  0  0  0  0  0  0  0  0  0  0  0
    7.2746    3.0171    0.0000 C   0  0  0  0  0  0  0  0  0  0  0  0
    7.2746    4.4171    0.0000 C   0  0  1  0  0  0  0  0  0  0  0  0
    6.0622    5.1171    0.0000 C   0  0  2  0  0  0  0  0  0  0  0  0
    4.8497    4.4171    0.0000 O   0  0  0  0  0  0  0  0  0  0  0  0
    6.0622    6.5171    0.0000 C   0  0  0  0  0  0  0  0  0  0  0  0
    7.2746    7.2171    0.0000 O   0  0  0  0  0  0  0  0  0  0  0  0
    4.8497    7.2171    0.0000 O   0  0  0  0  0  0  0  0  0  0  0  0
    8.4870    5.1171    0.0000 N   0  0  0  0  0  0  0  0  0  0  0  0
    9.6995    4.4171    0.0000 C   0  0  0  0  0  0  0  0  0  0  0  0
   10.9119    5.1171    0.0000 C   0  0  0  0  0  0  0  0  0  0  0  0
   12.1244    4.4171    0.0000 C   0  0  2  0  0  0  0  0  0  0  0  0
   13.3368    5.1171    0.0000 C   0  0  0  0  0  0  0  0  0  0  0  0
   14.5492    4.4171    0.0000 C   0  0  0  0  0  0  0  0  0  0  0  0
   15.7617    5.1171    0.0000 N   0  0  0  0  0  0  0  0  0  0  0  0
    9.6995    3.0171    0.0000 O   0  0  0  0  0  0  0  0  0  0  0  0
   12.1244    3.0171    0.0000 N   0  0  0  0  0  0  0  0  0  0  0  0
   16.9741    4.4171    0.0000 C   0  0  0  0  0  0  0  0  0  0  0  0
   18.1865    5.1171    0.0000 N   0  0  0  0  0  0  0  0  0  0  0  0
   16.9741    3.0171    0.0000 N   0  0  0  0  0  0  0  0  0  0  0  0
   15.7617    6.5171    0.0000 C   0  0  0  0  0  0  0  0  0  0  0  0
   13.7624    0.0000    0.0000 Cl  0  0  0  0  0  0  0  0  0  0  0  0
  1  2  2  0  0  0  0
  2  3  1  0  0  0  0
  3  4  2  0  0  0  0
  4  5  1  0  0  0  0
  5  6  1  0  0  0  0
  6  1  1  0  0  0  0
  6  7  2  0  0  0  0
  2  8  1  0  0  0  0
  5  9  1  6  0  0  0
  9 10  1  0  0  0  0
 10 11  2  0  0  0  0
 11 12  1  0  0  0  0
 12 13  1  0  0  0  0
 13 14  1  0  0  0  0
 14  9  1  0  0  0  0
 13 15  1  6  0  0  0
 15 16  1  0  0  0  0
 15 17  2  0  0  0  0
 12 18  1  1  0  0  0
 18 19  1  0  0  0  0
 19 20  1  0  0  0  0
 20 21  1  0  0  0  0
 21 22  1  0  0  0  0
 22 23  1  0  0  0  0
 23 24  1  0  0  0  0
 19 25  2  0  0  0  0
 21 26  1  6  0  0  0
 24 27  1  0  0  0  0
 27 28  1  0  0  0  0
 27 29  2  0  0  0  0
 24 30  1  0  0  0  0
M  END
>  <Mol_ID> (103)
2888

>  <Formula> (103)
C17H27ClN8O5

>  <MolWeight> (103)
458.89988

>  <Cat> (103)
S7419

>  <Name> (103)
Blasticidin S HCl

>  <Synonyms> (103)
Blasticidine S HCl

>  <Target> (103)
DNA/RNA Synthesis

>  <Form> (103)
hydrochloride salt

>  <CAS> (103)
589205

>  <URL> (103)
http://www.selleckchem.com/products/blasticidin-s-hcl.html

$$$$
VER155008.cdx
csChFnd80/01042310162D

 38 42  0  0  0  0  0  0  0  0999 V2000
    0.0000    6.7608    0.0000 N   0  0  0  0  0  0  0  0  0  0  0  0
    0.0000    5.3608    0.0000 C   0  0  0  0  0  0  0  0  0  0  0  0
    1.2124    4.6608    0.0000 N   0  0  0  0  0  0  0  0  0  0  0  0
    2.4249    5.3608    0.0000 C   0  0  0  0  0  0  0  0  0  0  0  0
    2.4249    6.7608    0.0000 C   0  0  0  0  0  0  0  0  0  0  0  0
    1.2124    7.4608    0.0000 C   0  0  0  0  0  0  0  0  0  0  0  0
    3.7563    4.9282    0.0000 N   0  0  0  0  0  0  0  0  0  0  0  0
    4.5792    6.0608    0.0000 C   0  0  0  0  0  0  0  0  0  0  0  0
    3.7563    7.1935    0.0000 N   0  0  0  0  0  0  0  0  0  0  0  0
    1.2124    8.8608    0.0000 N   0  0  0  0  0  0  0  0  0  0  0  0
    5.9793    6.0608    0.0000 N   0  0  0  0  0  0  0  0  0  0  0  0
    6.6792    7.2733    0.0000 C   0  0  0  0  0  0  0  0  0  0  0  0
    8.0793    7.2733    0.0000 C   0  0  0  0  0  0  0  0  0  0  0  0
    8.7792    6.0608    0.0000 C   0  0  0  0  0  0  0  0  0  0  0  0
   10.1793    6.0608    0.0000 C   0  0  0  0  0  0  0  0  0  0  0  0
   10.8792    7.2733    0.0000 C   0  0  0  0  0  0  0  0  0  0  0  0
   10.1793    8.4857    0.0000 C   0  0  0  0  0  0  0  0  0  0  0  0
    8.7792    8.4857    0.0000 C   0  0  0  0  0  0  0  0  0  0  0  0
   10.8792    9.6981    0.0000 Cl  0  0  0  0  0  0  0  0  0  0  0  0
   12.2793    7.2733    0.0000 Cl  0  0  0  0  0  0  0  0  0  0  0  0
    4.1890    3.5967    0.0000 C   0  0  1  0  0  0  0  0  0  0  0  0
    3.3661    2.4641    0.0000 C   0  0  1  0  0  0  0  0  0  0  0  0
    4.1890    1.3315    0.0000 C   0  0  1  0  0  0  0  0  0  0  0  0
    5.5205    1.7641    0.0000 C   0  0  2  0  0  0  0  0  0  0  0  0
    5.5205    3.1641    0.0000 O   0  0  0  0  0  0  0  0  0  0  0  0
    1.9661    2.4641    0.0000 O   0  0  0  0  0  0  0  0  0  0  0  0
    3.7563    0.0000    0.0000 O   0  0  0  0  0  0  0  0  0  0  0  0
    6.6531    0.9412    0.0000 C   0  0  0  0  0  0  0  0  0  0  0  0
    7.9320    1.5106    0.0000 O   0  0  0  0  0  0  0  0  0  0  0  0
    9.0647    0.6877    0.0000 C   0  0  0  0  0  0  0  0  0  0  0  0
   10.3436    1.2572    0.0000 C   0  0  0  0  0  0  0  0  0  0  0  0
   11.4763    0.4343    0.0000 C   0  0  0  0  0  0  0  0  0  0  0  0
   12.7552    1.0037    0.0000 C   0  0  0  0  0  0  0  0  0  0  0  0
   12.9016    2.3960    0.0000 C   0  0  0  0  0  0  0  0  0  0  0  0
   11.7689    3.2189    0.0000 C   0  0  0  0  0  0  0  0  0  0  0  0
   10.4900    2.6495    0.0000 C   0  0  0  0  0  0  0  0  0  0  0  0
   14.1805    2.9655    0.0000 C   0  0  0  0  0  0  0  0  0  0  0  0
   15.4592    3.5348    0.0000 N   0  0  0  0  0  0  0  0  0  0  0  0
  1  2  2  0  0  0  0
  2  3  1  0  0  0  0
  3  4  2  0  0  0  0
  4  5  1  0  0  0  0
  5  6  2  0  0  0  0
  6  1  1  0  0  0  0
  4  7  1  0  0  0  0
  7  8  1  0  0  0  0
  8  9  2  0  0  0  0
  9  5  1  0  0  0  0
  6 10  1  0  0  0  0
  8 11  1  0  0  0  0
 11 12  1  0  0  0  0
 12 13  1  0  0  0  0
 13 14  2  0  0  0  0
 14 15  1  0  0  0  0
 15 16  2  0  0  0  0
 16 17  1  0  0  0  0
 17 18  2  0  0  0  0
 18 13  1  0  0  0  0
 17 19  1  0  0  0  0
 16 20  1  0  0  0  0
 21  7  1  6  0  0  0
 21 22  1  0  0  0  0
 22 23  1  0  0  0  0
 23 24  1  0  0  0  0
 24 25  1  0  0  0  0
 25 21  1  0  0  0  0
 22 26  1  1  0  0  0
 23 27  1  1  0  0  0
 24 28  1  6  0  0  0
 28 29  1  0  0  0  0
 29 30  1  0  0  0  0
 30 31  1  0  0  0  0
 31 32  2  0  0  0  0
 32 33  1  0  0  0  0
 33 34  2  0  0  0  0
 34 35  1  0  0  0  0
 35 36  2  0  0  0  0
 36 31  1  0  0  0  0
 34 37  1  0  0  0  0
 37 38  3  0  0  0  0
M  END
>  <Mol_ID> (104)
3007

>  <Formula> (104)
C25H23Cl2N7O4

>  <MolWeight> (104)
556.40062

>  <Cat> (104)
S7751

>  <Name> (104)
VER155008

>  <Synonyms> (104)
C07

>  <Target> (104)
HSP (e.g. HSP90)

>  <Form> (104)
Free Base

>  <CAS> (104)
1134156-31-2

>  <URL> (104)
http://www.selleckchem.com/products/ver155008.html

$$$$
Tenofovir alafenamide.cdx
csChFnd80/01042310162D

 33 35  0  0  0  0  0  0  0  0999 V2000
    1.8088    9.1272    0.0000 C   0  0  0  0  0  0  0  0  0  0  0  0
    2.2649    7.8036    0.0000 C   0  0  0  0  0  0  0  0  0  0  0  0
    3.6392    7.5367    0.0000 N   0  0  0  0  0  0  0  0  0  0  0  0
    4.5575    8.5935    0.0000 C   0  0  0  0  0  0  0  0  0  0  0  0
    4.1014    9.9172    0.0000 N   0  0  0  0  0  0  0  0  0  0  0  0
    2.7271   10.1840    0.0000 C   0  0  0  0  0  0  0  0  0  0  0  0
    0.4090    9.1024    0.0000 N   0  0  0  0  0  0  0  0  0  0  0  0
    0.0000    7.7635    0.0000 C   0  0  0  0  0  0  0  0  0  0  0  0
    1.1470    6.9608    0.0000 N   0  0  0  0  0  0  0  0  0  0  0  0
    2.2710   11.5076    0.0000 N   0  0  0  0  0  0  0  0  0  0  0  0
    1.1717    5.5610    0.0000 C   0  0  0  0  0  0  0  0  0  0  0  0
    2.4302    4.9475    0.0000 C   0  0  2  0  0  0  0  0  0  0  0  0
    3.5907    5.7307    0.0000 O   0  0  0  0  0  0  0  0  0  0  0  0
    4.8491    5.1172    0.0000 C   0  0  0  0  0  0  0  0  0  0  0  0
    6.0096    5.9004    0.0000 P   0  0  2  0  0  0  0  0  0  0  0  0
    6.7927    4.7399    0.0000 N   0  0  0  0  0  0  0  0  0  0  0  0
    5.2265    7.0608    0.0000 O   0  0  0  0  0  0  0  0  0  0  0  0
    7.1701    6.6835    0.0000 O   0  0  0  0  0  0  0  0  0  0  0  0
    6.1793    3.4814    0.0000 C   0  0  2  0  0  0  0  0  0  0  0  0
    6.9624    2.3210    0.0000 C   0  0  0  0  0  0  0  0  0  0  0  0
    4.7827    3.3835    0.0000 C   0  0  0  0  0  0  0  0  0  0  0  0
    6.3490    1.0625    0.0000 O   0  0  0  0  0  0  0  0  0  0  0  0
    8.3590    2.4189    0.0000 O   0  0  0  0  0  0  0  0  0  0  0  0
    9.1421    1.2584    0.0000 C   0  0  0  0  0  0  0  0  0  0  0  0
   10.5387    1.3564    0.0000 C   0  0  0  0  0  0  0  0  0  0  0  0
    8.5287    0.0000    0.0000 C   0  0  0  0  0  0  0  0  0  0  0  0
    2.5282    3.5510    0.0000 C   0  0  0  0  0  0  0  0  0  0  0  0
    8.4221    6.0571    0.0000 C   0  0  0  0  0  0  0  0  0  0  0  0
    8.5498    4.6580    0.0000 C   0  0  0  0  0  0  0  0  0  0  0  0
    9.8253    4.0691    0.0000 C   0  0  0  0  0  0  0  0  0  0  0  0
   10.9731    4.8792    0.0000 C   0  0  0  0  0  0  0  0  0  0  0  0
   10.8454    6.2783    0.0000 C   0  0  0  0  0  0  0  0  0  0  0  0
    9.5699    6.8672    0.0000 C   0  0  0  0  0  0  0  0  0  0  0  0
  1  2  2  0  0  0  0
  2  3  1  0  0  0  0
  3  4  2  0  0  0  0
  4  5  1  0  0  0  0
  5  6  2  0  0  0  0
  6  1  1  0  0  0  0
  1  7  1  0  0  0  0
  7  8  2  0  0  0  0
  8  9  1  0  0  0  0
  9  2  1  0  0  0  0
  6 10  1  0  0  0  0
  9 11  1  0  0  0  0
 11 12  1  0  0  0  0
 12 13  1  0  0  0  0
 13 14  1  0  0  0  0
 14 15  1  0  0  0  0
 15 16  1  1  0  0  0
 15 17  2  0  0  0  0
 15 18  1  6  0  0  0
 16 19  1  0  0  0  0
 19 20  1  0  0  0  0
 19 21  1  6  0  0  0
 20 22  2  0  0  0  0
 20 23  1  0  0  0  0
 23 24  1  0  0  0  0
 24 25  1  0  0  0  0
 24 26  1  0  0  0  0
 12 27  1  6  0  0  0
 18 28  1  0  0  0  0
 28 29  2  0  0  0  0
 29 30  1  0  0  0  0
 30 31  2  0  0  0  0
 31 32  1  0  0  0  0
 32 33  2  0  0  0  0
 33 28  1  0  0  0  0
M  END
>  <Mol_ID> (105)
3017

>  <Formula> (105)
C21H29N6O5P

>  <MolWeight> (105)
476.465921

>  <Cat> (105)
S7856

>  <Name> (105)
Tenofovir Alafenamide (GS-7340)

>  <Synonyms> (105)
N/A

>  <Target> (105)
Reverse Transcriptase

>  <Form> (105)
Free Base

>  <CAS> (105)
379270-37-8

>  <URL> (105)
http://www.selleckchem.com/products/tenofovir-alafenamide-gs-7340.html

$$$$
6-Thio-dG.cdx
csChFnd80/01042310162D

 19 21  0  0  0  0  0  0  0  0999 V2000
    1.2124    4.9897    0.0000 N   0  0  0  0  0  0  0  0  0  0  0  0
    1.2124    3.5897    0.0000 C   0  0  0  0  0  0  0  0  0  0  0  0
    2.4249    2.8897    0.0000 N   0  0  0  0  0  0  0  0  0  0  0  0
    3.6373    3.5897    0.0000 C   0  0  0  0  0  0  0  0  0  0  0  0
    3.6373    4.9897    0.0000 C   0  0  0  0  0  0  0  0  0  0  0  0
    2.4249    5.6897    0.0000 C   0  0  0  0  0  0  0  0  0  0  0  0
    2.4249    7.0897    0.0000 S   0  0  0  0  0  0  0  0  0  0  0  0
    0.0000    2.8897    0.0000 N   0  0  0  0  0  0  0  0  0  0  0  0
    6.0622    3.5897    0.0000 N   0  0  0  0  0  0  0  0  0  0  0  0
    6.0622    4.9897    0.0000 C   0  0  0  0  0  0  0  0  0  0  0  0
    4.8497    5.6897    0.0000 N   0  0  0  0  0  0  0  0  0  0  0  0
    7.0521    2.5997    0.0000 C   0  0  1  0  0  0  0  0  0  0  0  0
    7.4145    1.2474    0.0000 C   0  0  0  0  0  0  0  0  0  0  0  0
    8.8126    1.1741    0.0000 C   0  0  1  0  0  0  0  0  0  0  0  0
    9.3143    2.4812    0.0000 C   0  0  2  0  0  0  0  0  0  0  0  0
    8.2263    3.3622    0.0000 O   0  0  0  0  0  0  0  0  0  0  0  0
   10.6666    2.8435    0.0000 C   0  0  0  0  0  0  0  0  0  0  0  0
   11.6565    1.8535    0.0000 O   0  0  0  0  0  0  0  0  0  0  0  0
    9.5750    0.0000    0.0000 O   0  0  0  0  0  0  0  0  0  0  0  0
  1  2  2  0  0  0  0
  2  3  1  0  0  0  0
  3  4  1  0  0  0  0
  4  5  2  0  0  0  0
  5  6  1  0  0  0  0
  6  1  1  0  0  0  0
  6  7  2  0  0  0  0
  2  8  1  0  0  0  0
  9 10  1  0  0  0  0
 10 11  2  0  0  0  0
 11  5  1  0  0  0  0
  4  9  1  0  0  0  0
 12  9  1  6  0  0  0
 12 13  1  0  0  0  0
 13 14  1  0  0  0  0
 14 15  1  0  0  0  0
 15 16  1  0  0  0  0
 16 12  1  0  0  0  0
 15 17  1  6  0  0  0
 17 18  1  0  0  0  0
 14 19  1  1  0  0  0
M  END
>  <Mol_ID> (106)
3041

>  <Formula> (106)
C10H13N5O3S

>  <MolWeight> (106)
283.30692

>  <Cat> (106)
S7757

>  <Name> (106)
6-Thio-dG

>  <Synonyms> (106)
N/A

>  <Target> (106)
DNA/RNA Synthesis

>  <Form> (106)
Free Base

>  <CAS> (106)
789-61-7

>  <URL> (106)
http://www.selleckchem.com/products/6-thio-dg.html

$$$$
Tubercidin.cdx
csChFnd80/01042310162D

 19 21  0  0  0  0  0  0  0  0999 V2000
    1.2566    6.3643    0.0000 N   0  0  0  0  0  0  0  0  0  0  0  0
    1.2566    4.9643    0.0000 C   0  0  0  0  0  0  0  0  0  0  0  0
    2.4686    4.2618    0.0000 N   0  0  0  0  0  0  0  0  0  0  0  0
    3.6831    4.9643    0.0000 C   0  0  0  0  0  0  0  0  0  0  0  0
    3.6831    6.3643    0.0000 C   0  0  0  0  0  0  0  0  0  0  0  0
    2.4686    7.0642    0.0000 C   0  0  0  0  0  0  0  0  0  0  0  0
    5.0137    4.5314    0.0000 N   0  0  0  0  0  0  0  0  0  0  0  0
    5.8375    5.6642    0.0000 C   0  0  0  0  0  0  0  0  0  0  0  0
    5.0137    6.7971    0.0000 C   0  0  0  0  0  0  0  0  0  0  0  0
    2.4686    8.4642    0.0000 N   0  0  0  0  0  0  0  0  0  0  0  0
    1.9442    0.9250    0.0000 C   0  0  2  0  0  0  0  0  0  0  0  0
    4.2989    0.9250    0.0000 C   0  0  1  0  0  0  0  0  0  0  0  0
    5.0137    1.7463    0.0000 C   0  0  1  0  0  0  0  0  0  0  0  0
    3.1190    2.4487    0.0000 O   0  0  0  0  0  0  0  0  0  0  0  0
    1.2145    1.7463    0.0000 C   0  0  2  0  0  0  0  0  0  0  0  0
    4.2989    0.0000    0.0000 O   0  0  0  0  0  0  0  0  0  0  0  0
    1.9442    0.0000    0.0000 O   0  0  0  0  0  0  0  0  0  0  0  0
    1.2145    2.8692    0.0000 C   0  0  0  0  0  0  0  0  0  0  0  0
    0.0000    3.5716    0.0000 O   0  0  0  0  0  0  0  0  0  0  0  0
  1  2  1  0  0  0  0
  2  3  2  0  0  0  0
  3  4  1  0  0  0  0
  4  5  2  0  0  0  0
  5  6  1  0  0  0  0
  1  6  2  0  0  0  0
  4  7  1  0  0  0  0
  7  8  1  0  0  0  0
  8  9  2  0  0  0  0
  5  9  1  0  0  0  0
  6 10  1  0  0  0  0
 11 12  1  1  0  0  0
 13 12  1  1  0  0  0
 13 14  1  0  0  0  0
 14 15  1  0  0  0  0
 15 11  1  1  0  0  0
 12 16  1  0  0  0  0
 11 17  1  0  0  0  0
 15 18  1  0  0  0  0
  7 13  1  0  0  0  0
 18 19  1  0  0  0  0
M  CFW  11 BOND_GSTEREO 5
M  END
>  <Mol_ID> (107)
3171

>  <Formula> (107)
C11H14N4O4

>  <MolWeight> (107)
266.25326

>  <Cat> (107)
S8095

>  <Name> (107)
Tubercidin

>  <Synonyms> (107)
7-deaza-adenosine

>  <Target> (107)
DNA/RNA Synthesis

>  <Form> (107)
Free Base

>  <CAS> (107)
69-33-0

>  <URL> (107)
http://www.selleckchem.com/products/tubercidin.html

$$$$
5-Iodotubercidin.cdx
csChFnd80/01042310162D

 20 22  0  0  0  0  0  0  0  0999 V2000
    1.2566    6.3643    0.0000 N   0  0  0  0  0  0  0  0  0  0  0  0
    1.2566    4.9643    0.0000 C   0  0  0  0  0  0  0  0  0  0  0  0
    2.4686    4.2618    0.0000 N   0  0  0  0  0  0  0  0  0  0  0  0
    3.6831    4.9643    0.0000 C   0  0  0  0  0  0  0  0  0  0  0  0
    3.6831    6.3643    0.0000 C   0  0  0  0  0  0  0  0  0  0  0  0
    2.4686    7.0642    0.0000 C   0  0  0  0  0  0  0  0  0  0  0  0
    5.0137    4.5314    0.0000 N   0  0  0  0  0  0  0  0  0  0  0  0
    5.8375    5.6642    0.0000 C   0  0  0  0  0  0  0  0  0  0  0  0
    5.0137    6.7971    0.0000 C   0  0  0  0  0  0  0  0  0  0  0  0
    2.4686    8.4642    0.0000 N   0  0  0  0  0  0  0  0  0  0  0  0
    1.9442    0.9250    0.0000 C   0  0  2  0  0  0  0  0  0  0  0  0
    4.2989    0.9250    0.0000 C   0  0  1  0  0  0  0  0  0  0  0  0
    5.0137    1.7463    0.0000 C   0  0  1  0  0  0  0  0  0  0  0  0
    3.1190    2.4487    0.0000 O   0  0  0  0  0  0  0  0  0  0  0  0
    1.2145    1.7463    0.0000 C   0  0  2  0  0  0  0  0  0  0  0  0
    4.2989    0.0000    0.0000 O   0  0  0  0  0  0  0  0  0  0  0  0
    1.9442    0.0000    0.0000 O   0  0  0  0  0  0  0  0  0  0  0  0
    1.2145    2.8692    0.0000 C   0  0  0  0  0  0  0  0  0  0  0  0
    0.0000    3.5716    0.0000 O   0  0  0  0  0  0  0  0  0  0  0  0
    5.4444    8.1241    0.0000 I   0  0  0  0  0  0  0  0  0  0  0  0
  1  2  1  0  0  0  0
  2  3  2  0  0  0  0
  3  4  1  0  0  0  0
  4  5  2  0  0  0  0
  5  6  1  0  0  0  0
  1  6  2  0  0  0  0
  4  7  1  0  0  0  0
  7  8  1  0  0  0  0
  8  9  2  0  0  0  0
  5  9  1  0  0  0  0
  6 10  1  0  0  0  0
 11 12  1  1  0  0  0
 13 12  1  1  0  0  0
 13 14  1  0  0  0  0
 14 15  1  0  0  0  0
 15 11  1  1  0  0  0
 12 16  1  0  0  0  0
 11 17  1  0  0  0  0
 15 18  1  0  0  0  0
  7 13  1  0  0  0  0
 18 19  1  0  0  0  0
  9 20  1  0  0  0  0
M  CFW  11 BOND_GSTEREO 5
M  END
>  <Mol_ID> (108)
3182

>  <Formula> (108)
C11H13IN4O4

>  <MolWeight> (108)
392.14979

>  <Cat> (108)
S8314

>  <Name> (108)
5-Iodotubercidin

>  <Synonyms> (108)
NSC 113939, 5-ITu

>  <Target> (108)
Adenosine Receptor

>  <Form> (108)
Free Base

>  <CAS> (108)
24386-93-4

>  <URL> (108)
http://www.selleckchem.com/products/5-iodotubercidin.html

$$$$
SQ22536.cdx
csChFnd80/01042310162D

 15 17  0  0  0  0  0  0  0  0999 V2000
    0.0000    5.4293    0.0000 N   0  0  0  0  0  0  0  0  0  0  0  0
    0.0000    4.0293    0.0000 C   0  0  0  0  0  0  0  0  0  0  0  0
    1.2124    3.3293    0.0000 N   0  0  0  0  0  0  0  0  0  0  0  0
    2.4249    4.0293    0.0000 C   0  0  0  0  0  0  0  0  0  0  0  0
    2.4249    5.4293    0.0000 C   0  0  0  0  0  0  0  0  0  0  0  0
    1.2124    6.1293    0.0000 C   0  0  0  0  0  0  0  0  0  0  0  0
    3.7564    3.5967    0.0000 N   0  0  0  0  0  0  0  0  0  0  0  0
    4.5792    4.7293    0.0000 C   0  0  0  0  0  0  0  0  0  0  0  0
    3.7564    5.8620    0.0000 N   0  0  0  0  0  0  0  0  0  0  0  0
    4.1890    2.2652    0.0000 C   0  0  3  0  0  0  0  0  0  0  0  0
    1.2124    7.5293    0.0000 N   0  0  0  0  0  0  0  0  0  0  0  0
    3.3661    1.1326    0.0000 O   0  0  0  0  0  0  0  0  0  0  0  0
    4.1890    0.0000    0.0000 C   0  0  0  0  0  0  0  0  0  0  0  0
    5.5205    0.4326    0.0000 C   0  0  0  0  0  0  0  0  0  0  0  0
    5.5205    1.8326    0.0000 C   0  0  0  0  0  0  0  0  0  0  0  0
  1  2  2  0  0  0  0
  2  3  1  0  0  0  0
  3  4  2  0  0  0  0
  4  5  1  0  0  0  0
  5  6  2  0  0  0  0
  6  1  1  0  0  0  0
  4  7  1  0  0  0  0
  7  8  1  0  0  0  0
  8  9  2  0  0  0  0
  9  5  1  0  0  0  0
  7 10  1  0  0  0  0
  6 11  1  0  0  0  0
 10 12  1  0  0  0  0
 12 13  1  0  0  0  0
 13 14  1  0  0  0  0
 14 15  1  0  0  0  0
 15 10  1  0  0  0  0
M  END
>  <Mol_ID> (109)
3211

>  <Formula> (109)
C9H11N5O

>  <MolWeight> (109)
205.21654

>  <Cat> (109)
S8283

>  <Name> (109)
SQ22536

>  <Synonyms> (109)
9-(tetrahydrofuran-2-yl)-9h-purin-6-amine

>  <Target> (109)
cAMP

>  <Form> (109)
Free Base

>  <CAS> (109)
17318-31-9

>  <URL> (109)
http://www.selleckchem.com/products/sq22536.html

$$$$
TAS-102.cdx
csChFnd80/01042310162D

 57 59  0  0  0  0  0  0  0  0999 V2000
    1.2124    8.1558    0.0000 N   0  0  0  0  0  0  0  0  0  0  0  0
    1.2124    6.7558    0.0000 C   0  0  0  0  0  0  0  0  0  0  0  0
    2.4249    6.0558    0.0000 N   0  0  0  0  0  0  0  0  0  0  0  0
    3.6373    6.7558    0.0000 C   0  0  0  0  0  0  0  0  0  0  0  0
    3.6373    8.1558    0.0000 C   0  0  0  0  0  0  0  0  0  0  0  0
    2.4249    8.8558    0.0000 C   0  0  0  0  0  0  0  0  0  0  0  0
    2.4249   10.2558    0.0000 O   0  0  0  0  0  0  0  0  0  0  0  0
    0.0000    6.0558    0.0000 O   0  0  0  0  0  0  0  0  0  0  0  0
    2.4249    4.6558    0.0000 C   0  0  2  0  0  0  0  0  0  0  0  0
    4.8497    8.8558    0.0000 C   0  0  0  0  0  0  0  0  0  0  0  0
    6.0622    8.1558    0.0000 F   0  0  0  0  0  0  0  0  0  0  0  0
    4.8497   10.2558    0.0000 F   0  0  0  0  0  0  0  0  0  0  0  0
    6.0622    9.5558    0.0000 F   0  0  0  0  0  0  0  0  0  0  0  0
    1.2922    3.8329    0.0000 O   0  0  0  0  0  0  0  0  0  0  0  0
    1.7249    2.5014    0.0000 C   0  0  1  0  0  0  0  0  0  0  0  0
    3.1249    2.5014    0.0000 C   0  0  2  0  0  0  0  0  0  0  0  0
    3.5575    3.8329    0.0000 C   0  0  0  0  0  0  0  0  0  0  0  0
    0.9020    1.3688    0.0000 C   0  0  0  0  0  0  0  0  0  0  0  0
    1.4714    0.0898    0.0000 O   0  0  0  0  0  0  0  0  0  0  0  0
    3.9478    1.3688    0.0000 O   0  0  0  0  0  0  0  0  0  0  0  0
    7.9448    8.0660    0.0000 N   0  0  0  0  0  0  0  0  0  0  0  0
    7.9448    6.6660    0.0000 C   0  0  0  0  0  0  0  0  0  0  0  0
    9.1572    5.9660    0.0000 N   0  0  0  0  0  0  0  0  0  0  0  0
   10.3696    6.6660    0.0000 C   0  0  0  0  0  0  0  0  0  0  0  0
   10.3696    8.0660    0.0000 C   0  0  0  0  0  0  0  0  0  0  0  0
    9.1572    8.7660    0.0000 C   0  0  0  0  0  0  0  0  0  0  0  0
    9.1572   10.1660    0.0000 O   0  0  0  0  0  0  0  0  0  0  0  0
    6.7323    5.9660    0.0000 O   0  0  0  0  0  0  0  0  0  0  0  0
    9.1572    4.5660    0.0000 C   0  0  2  0  0  0  0  0  0  0  0  0
   11.5821    8.7660    0.0000 C   0  0  0  0  0  0  0  0  0  0  0  0
   12.7945    8.0660    0.0000 F   0  0  0  0  0  0  0  0  0  0  0  0
   11.5821   10.1660    0.0000 F   0  0  0  0  0  0  0  0  0  0  0  0
   12.7945    9.4660    0.0000 F   0  0  0  0  0  0  0  0  0  0  0  0
    8.0246    3.7431    0.0000 O   0  0  0  0  0  0  0  0  0  0  0  0
    8.4572    2.4116    0.0000 C   0  0  1  0  0  0  0  0  0  0  0  0
    9.8572    2.4116    0.0000 C   0  0  2  0  0  0  0  0  0  0  0  0
   10.2898    3.7431    0.0000 C   0  0  0  0  0  0  0  0  0  0  0  0
    7.6343    1.2790    0.0000 C   0  0  0  0  0  0  0  0  0  0  0  0
    8.2037    0.0000    0.0000 O   0  0  0  0  0  0  0  0  0  0  0  0
   10.6801    1.2790    0.0000 O   0  0  0  0  0  0  0  0  0  0  0  0
   14.7924    6.5808    0.0000 N   0  0  0  0  0  0  0  0  0  0  0  0
   14.7924    5.1808    0.0000 C   0  0  0  0  0  0  0  0  0  0  0  0
   16.0049    4.4808    0.0000 N   0  0  0  0  0  0  0  0  0  0  0  0
   17.2173    5.1808    0.0000 C   0  0  0  0  0  0  0  0  0  0  0  0
   17.2173    6.5808    0.0000 C   0  0  0  0  0  0  0  0  0  0  0  0
   16.0049    7.2808    0.0000 C   0  0  0  0  0  0  0  0  0  0  0  0
   16.0049    8.6808    0.0000 O   0  0  0  0  0  0  0  0  0  0  0  0
   13.5800    4.4808    0.0000 O   0  0  0  0  0  0  0  0  0  0  0  0
   18.4297    7.2808    0.0000 Cl  0  0  0  0  0  0  0  0  0  0  0  0
   18.4297    4.4808    0.0000 C   0  0  0  0  0  0  0  0  0  0  0  0
   19.6422    5.1808    0.0000 N   0  0  0  0  0  0  0  0  0  0  0  0
   20.9211    4.6114    0.0000 C   0  0  0  0  0  0  0  0  0  0  0  0
   21.8579    5.6518    0.0000 C   0  0  0  0  0  0  0  0  0  0  0  0
   21.1579    6.8642    0.0000 C   0  0  0  0  0  0  0  0  0  0  0  0
   19.7885    6.5731    0.0000 C   0  0  0  0  0  0  0  0  0  0  0  0
   21.2122    3.2420    0.0000 N   0  0  0  0  0  0  0  0  0  0  0  0
   17.8423    1.6377    0.0000 Cl  0  0  0  0  0  0  0  0  0  0  0  0
  1  2  1  0  0  0  0
  2  3  1  0  0  0  0
  3  4  1  0  0  0  0
  4  5  2  0  0  0  0
  5  6  1  0  0  0  0
  6  1  1  0  0  0  0
  6  7  2  0  0  0  0
  2  8  2  0  0  0  0
  9  3  1  1  0  0  0
  5 10  1  0  0  0  0
 10 11  1  0  0  0  0
 10 12  1  0  0  0  0
 10 13  1  0  0  0  0
  9 14  1  0  0  0  0
 14 15  1  0  0  0  0
 15 16  1  0  0  0  0
 16 17  1  0  0  0  0
 17  9  1  0  0  0  0
 15 18  1  1  0  0  0
 18 19  1  0  0  0  0
 16 20  1  6  0  0  0
 21 22  1  0  0  0  0
 22 23  1  0  0  0  0
 23 24  1  0  0  0  0
 24 25  2  0  0  0  0
 25 26  1  0  0  0  0
 26 21  1  0  0  0  0
 26 27  2  0  0  0  0
 22 28  2  0  0  0  0
 29 23  1  1  0  0  0
 25 30  1  0  0  0  0
 30 31  1  0  0  0  0
 30 32  1  0  0  0  0
 30 33  1  0  0  0  0
 29 34  1  0  0  0  0
 34 35  1  0  0  0  0
 35 36  1  0  0  0  0
 36 37  1  0  0  0  0
 37 29  1  0  0  0  0
 35 38  1  1  0  0  0
 38 39  1  0  0  0  0
 36 40  1  6  0  0  0
 41 42  1  0  0  0  0
 42 43  1  0  0  0  0
 43 44  1  0  0  0  0
 44 45  2  0  0  0  0
 45 46  1  0  0  0  0
 46 41  1  0  0  0  0
 46 47  2  0  0  0  0
 42 48  2  0  0  0  0
 45 49  1  0  0  0  0
 44 50  1  0  0  0  0
 50 51  1  0  0  0  0
 51 52  1  0  0  0  0
 52 53  1  0  0  0  0
 53 54  1  0  0  0  0
 54 55  1  0  0  0  0
 55 51  1  0  0  0  0
 52 56  2  0  0  0  0
M  END
>  <Mol_ID> (110)
3381

>  <Formula> (110)
C29H34Cl2F6N8O12

>  <MolWeight> (110)
871.5230792

>  <Cat> (110)
S8539

>  <Name> (110)
TAS-102

>  <Synonyms> (110)
N/A

>  <Target> (110)
others

>  <Form> (110)
hydrochloride

>  <CAS> (110)
733030-01-8

>  <URL> (110)
http://www.selleckchem.com/products/tas-102.html

$$$$
A-317491.cdx
csChFnd80/01042310162D

 42 46  0  0  0  0  0  0  0  0999 V2000
    2.4249   10.5000    0.0000 C   0  0  0  0  0  0  0  0  0  0  0  0
    2.4249    9.1000    0.0000 C   0  0  0  0  0  0  0  0  0  0  0  0
    3.6373    8.4000    0.0000 C   0  0  0  0  0  0  0  0  0  0  0  0
    4.8497    9.1000    0.0000 C   0  0  0  0  0  0  0  0  0  0  0  0
    4.8497   10.5000    0.0000 C   0  0  0  0  0  0  0  0  0  0  0  0
    3.6373   11.2000    0.0000 C   0  0  0  0  0  0  0  0  0  0  0  0
    3.6373   12.6000    0.0000 C   0  0  0  0  0  0  0  0  0  0  0  0
    1.2124    8.4000    0.0000 C   0  0  0  0  0  0  0  0  0  0  0  0
    6.0622   11.2000    0.0000 C   0  0  0  0  0  0  0  0  0  0  0  0
    3.6373    7.0000    0.0000 C   0  0  0  0  0  0  0  0  0  0  0  0
    4.8497    6.3000    0.0000 N   0  0  0  0  0  0  0  0  0  0  0  0
    2.4249    6.3000    0.0000 O   0  0  0  0  0  0  0  0  0  0  0  0
    6.0622    7.0000    0.0000 C   0  0  0  0  0  0  0  0  0  0  0  0
    7.2746    6.3000    0.0000 C   0  0  0  0  0  0  0  0  0  0  0  0
    4.8497    4.9000    0.0000 C   0  0  2  0  0  0  0  0  0  0  0  0
    3.6373    4.2000    0.0000 C   0  0  0  0  0  0  0  0  0  0  0  0
    3.6373    2.8000    0.0000 C   0  0  0  0  0  0  0  0  0  0  0  0
    4.8497    2.1000    0.0000 C   0  0  0  0  0  0  0  0  0  0  0  0
    6.0622    2.8000    0.0000 C   0  0  0  0  0  0  0  0  0  0  0  0
    6.0622    4.2000    0.0000 C   0  0  0  0  0  0  0  0  0  0  0  0
    2.4249    4.9000    0.0000 C   0  0  0  0  0  0  0  0  0  0  0  0
    1.2124    4.2000    0.0000 C   0  0  0  0  0  0  0  0  0  0  0  0
    1.2124    2.8000    0.0000 C   0  0  0  0  0  0  0  0  0  0  0  0
    2.4249    2.1000    0.0000 C   0  0  0  0  0  0  0  0  0  0  0  0
    7.2746    4.9000    0.0000 C   0  0  0  0  0  0  0  0  0  0  0  0
    8.4870    4.2000    0.0000 C   0  0  0  0  0  0  0  0  0  0  0  0
    9.6995    4.9000    0.0000 C   0  0  0  0  0  0  0  0  0  0  0  0
    9.6995    6.3000    0.0000 C   0  0  0  0  0  0  0  0  0  0  0  0
    8.4870    7.0000    0.0000 C   0  0  0  0  0  0  0  0  0  0  0  0
    8.4870    2.8000    0.0000 O   0  0  0  0  0  0  0  0  0  0  0  0
    9.6995    2.1000    0.0000 C   0  0  0  0  0  0  0  0  0  0  0  0
    9.6995    0.7000    0.0000 C   0  0  0  0  0  0  0  0  0  0  0  0
   10.9119    0.0000    0.0000 C   0  0  0  0  0  0  0  0  0  0  0  0
   12.1244    0.7000    0.0000 C   0  0  0  0  0  0  0  0  0  0  0  0
   12.1244    2.1000    0.0000 C   0  0  0  0  0  0  0  0  0  0  0  0
   10.9119    2.8000    0.0000 C   0  0  0  0  0  0  0  0  0  0  0  0
    0.0000    9.1000    0.0000 O   0  0  0  0  0  0  0  0  0  0  0  0
    1.2124    7.0000    0.0000 O   0  0  0  0  0  0  0  0  0  0  0  0
    7.2746   10.5000    0.0000 O   0  0  0  0  0  0  0  0  0  0  0  0
    6.0622   12.6000    0.0000 O   0  0  0  0  0  0  0  0  0  0  0  0
    2.4249   13.3000    0.0000 O   0  0  0  0  0  0  0  0  0  0  0  0
    4.8497   13.3000    0.0000 O   0  0  0  0  0  0  0  0  0  0  0  0
  1  2  2  0  0  0  0
  2  3  1  0  0  0  0
  3  4  2  0  0  0  0
  4  5  1  0  0  0  0
  5  6  2  0  0  0  0
  6  1  1  0  0  0  0
  6  7  1  0  0  0  0
  2  8  1  0  0  0  0
  5  9  1  0  0  0  0
  3 10  1  0  0  0  0
 10 11  1  0  0  0  0
 10 12  2  0  0  0  0
 11 13  1  0  0  0  0
 13 14  1  0  0  0  0
 15 11  1  1  0  0  0
 15 16  1  0  0  0  0
 16 17  2  0  0  0  0
 17 18  1  0  0  0  0
 18 19  1  0  0  0  0
 19 20  1  0  0  0  0
 20 15  1  0  0  0  0
 16 21  1  0  0  0  0
 21 22  2  0  0  0  0
 22 23  1  0  0  0  0
 23 24  2  0  0  0  0
 24 17  1  0  0  0  0
 14 25  2  0  0  0  0
 25 26  1  0  0  0  0
 26 27  2  0  0  0  0
 27 28  1  0  0  0  0
 28 29  2  0  0  0  0
 29 14  1  0  0  0  0
 26 30  1  0  0  0  0
 30 31  1  0  0  0  0
 31 32  2  0  0  0  0
 32 33  1  0  0  0  0
 33 34  2  0  0  0  0
 34 35  1  0  0  0  0
 35 36  2  0  0  0  0
 36 31  1  0  0  0  0
  8 37  1  0  0  0  0
  8 38  2  0  0  0  0
  9 39  2  0  0  0  0
  9 40  1  0  0  0  0
  7 41  1  0  0  0  0
  7 42  2  0  0  0  0
M  END
>  <Mol_ID> (111)
3402

>  <Formula> (111)
C33H27NO8

>  <MolWeight> (111)
565.56938

>  <Cat> (111)
S8519

>  <Name> (111)
A-317491

>  <Synonyms> (111)
N/A

>  <Target> (111)
 P2X2/3,P2X3

>  <Form> (111)
free base

>  <CAS> (111)
475205-49-3 

>  <URL> (111)
http://www.selleckchem.com/products/a-317491.html

$$$$
S3619 Citicoline sodium.cdx
csChFnd80/01042310162D

 32 32  0  0  0  0  0  0  0  0999 V2000
   11.4612    5.3353    0.0000 C   0  0  2  0  0  0  0  0  0  0  0  0
   11.4663    6.7353    0.0000 N   0  0  0  0  0  0  0  0  0  0  0  0
   10.3399    4.5435    0.0000 O   0  0  0  0  0  0  0  0  0  0  0  0
   12.6002    4.5186    0.0000 C   0  0  1  0  0  0  0  0  0  0  0  0
   10.2702    7.4428    0.0000 C   0  0  0  0  0  0  0  0  0  0  0  0
   12.6935    7.4492    0.0000 C   0  0  0  0  0  0  0  0  0  0  0  0
   10.7487    3.2064    0.0000 C   0  0  1  0  0  0  0  0  0  0  0  0
   12.1484    3.1897    0.0000 C   0  0  1  0  0  0  0  0  0  0  0  0
   13.9332    4.9464    0.0000 O   0  0  0  0  0  0  0  0  0  0  0  0
   10.2665    8.8465    0.0000 N   0  0  0  0  0  0  0  0  0  0  0  0
    9.0550    6.7476    0.0000 O   0  0  0  0  0  0  0  0  0  0  0  0
   12.6898    8.8530    0.0000 C   0  0  0  0  0  0  0  0  0  0  0  0
    9.9138    2.0826    0.0000 C   0  0  0  0  0  0  0  0  0  0  0  0
   12.9573    2.0470    0.0000 O   0  0  0  0  0  0  0  0  0  0  0  0
   11.4588    9.5546    0.0000 C   0  0  0  0  0  0  0  0  0  0  0  0
    8.5212    2.2439    0.0000 O   0  0  0  0  0  0  0  0  0  0  0  0
   11.4463   10.9546    0.0000 N   0  0  0  0  0  0  0  0  0  0  0  0
    7.6892    1.1239    0.0000 P   0  0  3  0  0  0  0  0  0  0  0  0
    6.5596    1.9630    0.0000 O   0  0  0  0  0  0  0  0  0  0  0  0
    6.8544    0.0000    0.0000 O   0  0  0  0  0  0  0  0  0  0  0  0
    8.8073    0.2933    0.0000 O   0  5  0  0  0  0  0  0  0  0  0  0
    5.2782    1.4087    0.0000 P   0  0  3  0  0  0  0  0  0  0  0  0
    4.7197    2.6997    0.0000 O   0  0  0  0  0  0  0  0  0  0  0  0
    5.8314    0.1299    0.0000 O   0  0  0  0  0  0  0  0  0  0  0  0
    3.9933    0.8528    0.0000 O   0  5  0  0  0  0  0  0  0  0  0  0
    3.3328    2.8604    0.0000 C   0  0  0  0  0  0  0  0  0  0  0  0
    2.7747    4.1506    0.0000 C   0  0  0  0  0  0  0  0  0  0  0  0
    1.3907    4.3109    0.0000 N   0  3  0  0  0  0  0  0  0  0  0  0
    1.2306    2.9285    0.0000 C   0  0  0  0  0  0  0  0  0  0  0  0
    0.0000    4.4720    0.0000 C   0  0  0  0  0  0  0  0  0  0  0  0
    1.5527    5.7099    0.0000 C   0  0  0  0  0  0  0  0  0  0  0  0
   10.0548    0.3387    0.0000 Na  0  3  0  0  0  0  0  0  0  0  0  0
  1  2  1  1  0  0  0
  1  3  1  0  0  0  0
  1  4  1  0  0  0  0
  2  5  1  0  0  0  0
  2  6  1  0  0  0  0
  3  7  1  0  0  0  0
  4  8  1  0  0  0  0
  4  9  1  6  0  0  0
  5 10  1  0  0  0  0
  5 11  2  0  0  0  0
  6 12  2  0  0  0  0
  7 13  1  1  0  0  0
  7  8  1  0  0  0  0
  8 14  1  6  0  0  0
 10 15  2  0  0  0  0
 12 15  1  0  0  0  0
 13 16  1  0  0  0  0
 15 17  1  0  0  0  0
 16 18  1  0  0  0  0
 18 19  1  0  0  0  0
 18 20  2  0  0  0  0
 18 21  1  0  0  0  0
 19 22  1  0  0  0  0
 22 23  1  0  0  0  0
 22 24  2  0  0  0  0
 22 25  1  0  0  0  0
 23 26  1  0  0  0  0
 26 27  1  0  0  0  0
 27 28  1  0  0  0  0
 28 29  1  0  0  0  0
 28 30  1  0  0  0  0
 28 31  1  0  0  0  0
M  END
>  <Mol_ID> (112)
3442

>  <Formula> (112)
C14H25N4NaO11P2

>  <MolWeight> (112)
510.305792

>  <Cat> (112)
S3619

>  <Name> (112)
Citicoline sodium

>  <Synonyms> (112)
CDP-choline

>  <Target> (112)
Others

>  <Form> (112)
sodium salt

>  <CAS> (112)
33818-15-4

>  <URL> (112)
http://www.selleckchem.com/products/citicoline-sodium.html

$$$$
S3737 Cangrelor Tetrasodium.cdx
csChFnd80/01042310162D

 48 50  0  0  0  0  0  0  0  0999 V2000
    9.7442    7.7292    0.0000 N   0  0  0  0  0  0  0  0  0  0  0  0
    9.7442    6.3292    0.0000 C   0  0  0  0  0  0  0  0  0  0  0  0
   10.9562    5.6268    0.0000 N   0  0  0  0  0  0  0  0  0  0  0  0
   12.1707    6.3292    0.0000 C   0  0  0  0  0  0  0  0  0  0  0  0
   12.1707    7.7292    0.0000 C   0  0  0  0  0  0  0  0  0  0  0  0
   10.9562    8.4292    0.0000 C   0  0  0  0  0  0  0  0  0  0  0  0
   13.5013    5.8964    0.0000 N   0  0  0  0  0  0  0  0  0  0  0  0
   14.3251    7.0292    0.0000 C   0  0  0  0  0  0  0  0  0  0  0  0
   13.5013    8.1621    0.0000 N   0  0  0  0  0  0  0  0  0  0  0  0
   10.9562    9.8292    0.0000 N   0  0  0  0  0  0  0  0  0  0  0  0
   10.4317    0.9250    0.0000 C   0  0  2  0  0  0  0  0  0  0  0  0
   12.7865    0.9250    0.0000 C   0  0  1  0  0  0  0  0  0  0  0  0
   13.5013    1.7463    0.0000 C   0  0  1  0  0  0  0  0  0  0  0  0
   11.6066    2.4487    0.0000 O   0  0  0  0  0  0  0  0  0  0  0  0
    9.7021    1.7463    0.0000 C   0  0  2  0  0  0  0  0  0  0  0  0
   12.7865    0.0000    0.0000 O   0  0  0  0  0  0  0  0  0  0  0  0
   10.4317    0.0000    0.0000 O   0  0  0  0  0  0  0  0  0  0  0  0
    9.7021    2.8692    0.0000 C   0  0  0  0  0  0  0  0  0  0  0  0
    8.4876    3.5716    0.0000 O   0  0  0  0  0  0  0  0  0  0  0  0
    9.7437   10.5292    0.0000 C   0  0  0  0  0  0  0  0  0  0  0  0
    8.5313    9.8292    0.0000 C   0  0  0  0  0  0  0  0  0  0  0  0
    7.3189   10.5292    0.0000 S   0  0  0  0  0  0  0  0  0  0  0  0
    6.1064    9.8292    0.0000 C   0  0  0  0  0  0  0  0  0  0  0  0
    8.5312    5.6303    0.0000 S   0  0  0  0  0  0  0  0  0  0  0  0
    7.3193    6.3313    0.0000 C   0  0  0  0  0  0  0  0  0  0  0  0
    6.1063    5.6323    0.0000 C   0  0  0  0  0  0  0  0  0  0  0  0
    4.8945    6.3333    0.0000 C   0  0  0  0  0  0  0  0  0  0  0  0
    3.6820    7.0333    0.0000 F   0  0  0  0  0  0  0  0  0  0  0  0
    5.5945    7.5457    0.0000 F   0  0  0  0  0  0  0  0  0  0  0  0
    4.1945    5.1208    0.0000 F   0  0  0  0  0  0  0  0  0  0  0  0
    7.2746    2.8725    0.0000 P   0  0  3  0  0  0  0  0  0  0  0  0
    6.0622    2.1725    0.0000 O   0  0  0  0  0  0  0  0  0  0  0  0
    6.5746    4.0849    0.0000 O   0  0  0  0  0  0  0  0  0  0  0  0
    7.9746    1.6601    0.0000 O   0  0  0  0  0  0  0  0  0  0  0  0
    7.2746    0.4476    0.0000 Na  0  0  0  0  0  0  0  0  0  0  0  0
    4.8497    2.8725    0.0000 P   0  0  3  0  0  0  0  0  0  0  0  0
    3.6373    2.1725    0.0000 C   0  0  0  0  0  0  0  0  0  0  0  0
    4.8497    4.2725    0.0000 O   0  0  0  0  0  0  0  0  0  0  0  0
    4.8497    1.4725    0.0000 O   0  0  0  0  0  0  0  0  0  0  0  0
    6.0622    0.7725    0.0000 Na  0  0  0  0  0  0  0  0  0  0  0  0
    2.4249    2.8725    0.0000 P   0  0  0  0  0  0  0  0  0  0  0  0
    2.4249    4.2725    0.0000 O   0  0  0  0  0  0  0  0  0  0  0  0
    1.2124    2.1725    0.0000 O   0  0  0  0  0  0  0  0  0  0  0  0
    0.0000    2.8725    0.0000 Na  0  0  0  0  0  0  0  0  0  0  0  0
    2.0625    1.5202    0.0000 O   0  0  0  0  0  0  0  0  0  0  0  0
    0.7102    1.1579    0.0000 Na  0  0  0  0  0  0  0  0  0  0  0  0
    2.9373    0.9601    0.0000 Cl  0  0  0  0  0  0  0  0  0  0  0  0
    3.9997    0.8202    0.0000 Cl  0  0  0  0  0  0  0  0  0  0  0  0
  1  2  1  0  0  0  0
  2  3  2  0  0  0  0
  3  4  1  0  0  0  0
  4  5  2  0  0  0  0
  5  6  1  0  0  0  0
  1  6  2  0  0  0  0
  4  7  1  0  0  0  0
  7  8  1  0  0  0  0
  8  9  2  0  0  0  0
  5  9  1  0  0  0  0
  6 10  1  0  0  0  0
 11 12  1  0  0  0  0
 13 12  1  0  0  0  0
 13 14  1  0  0  0  0
 14 15  1  0  0  0  0
 15 11  1  0  0  0  0
 12 16  1  1  0  0  0
 11 17  1  1  0  0  0
 15 18  1  1  0  0  0
 13  7  1  1  0  0  0
 18 19  1  0  0  0  0
 10 20  1  0  0  0  0
 20 21  1  0  0  0  0
 21 22  1  0  0  0  0
 22 23  1  0  0  0  0
  2 24  1  0  0  0  0
 24 25  1  0  0  0  0
 25 26  1  0  0  0  0
 26 27  1  0  0  0  0
 19 31  1  0  0  0  0
 31 32  1  0  0  0  0
 31 33  2  0  0  0  0
 31 34  1  0  0  0  0
 32 36  1  0  0  0  0
 36 37  1  0  0  0  0
 36 38  2  0  0  0  0
 36 39  1  0  0  0  0
 37 41  1  0  0  0  0
 41 42  2  0  0  0  0
 41 43  1  0  0  0  0
 41 45  1  0  0  0  0
 37 47  1  0  0  0  0
 37 48  1  0  0  0  0
 27 28  1  0  0  0  0
 27 29  1  0  0  0  0
 27 30  1  0  0  0  0
 34 35  1  0  0  0  0
 39 40  1  0  0  0  0
 43 44  1  0  0  0  0
 45 46  1  0  0  0  0
M  CFW  16 BOND_GSTEREO 5
M  CFW  17 BOND_GSTEREO 5
M  END
>  <Mol_ID> (113)
3459

>  <Formula> (113)
C17H21Cl2F3N5Na4O12P3S2

>  <MolWeight> (113)
864.2865126

>  <Cat> (113)
S3737

>  <Name> (113)
Cangrelor Tetrasodium

>  <Synonyms> (113)
AR-C69931MX

>  <Target> (113)
P2Y12 receptor

>  <Form> (113)
tetrasodium salt

>  <CAS> (113)
163706-36-3

>  <URL> (113)
http://www.selleckchem.com/products/cangrelor-tetrasodium.html

$$$$
Adenosine Dialdehyde (ADOX).cdx
csChFnd80/01042310162D

 21 22  0  0  0  0  0  0  0  0999 V2000
    6.3816    3.5000    0.0000 C   0  0  0  0  0  0  0  0  0  0  0  0
    6.3816    2.1000    0.0000 C   0  0  0  0  0  0  0  0  0  0  0  0
    7.5941    1.4000    0.0000 C   0  0  0  0  0  0  0  0  0  0  0  0
    8.8065    2.1000    0.0000 N   0  0  0  0  0  0  0  0  0  0  0  0
    8.8065    3.5000    0.0000 C   0  0  0  0  0  0  0  0  0  0  0  0
    7.5941    4.2000    0.0000 N   0  0  0  0  0  0  0  0  0  0  0  0
    5.0293    3.8623    0.0000 N   0  0  0  0  0  0  0  0  0  0  0  0
    4.2668    2.6882    0.0000 C   0  0  0  0  0  0  0  0  0  0  0  0
    5.1479    1.6002    0.0000 N   0  0  0  0  0  0  0  0  0  0  0  0
    7.5941    0.0000    0.0000 N   0  0  0  0  0  0  0  0  0  0  0  0
    4.5276    5.1694    0.0000 C   0  0  3  0  0  0  0  0  0  0  0  0
    5.4087    6.2574    0.0000 C   0  0  0  0  0  0  0  0  0  0  0  0
    4.9070    7.5644    0.0000 O   0  0  0  0  0  0  0  0  0  0  0  0
    6.7914    6.0384    0.0000 H   0  0  0  0  0  0  0  0  0  0  0  0
    3.1449    5.3884    0.0000 O   0  0  0  0  0  0  0  0  0  0  0  0
    2.2638    4.3004    0.0000 C   0  0  3  0  0  0  0  0  0  0  0  0
    0.8810    4.5194    0.0000 C   0  0  0  0  0  0  0  0  0  0  0  0
    0.0000    3.4314    0.0000 H   0  0  0  0  0  0  0  0  0  0  0  0
    0.3793    5.8264    0.0000 O   0  0  0  0  0  0  0  0  0  0  0  0
    2.7655    2.9933    0.0000 C   0  0  0  0  0  0  0  0  0  0  0  0
    1.8845    1.9053    0.0000 O   0  0  0  0  0  0  0  0  0  0  0  0
  1  2  2  0  0  0  0
  2  3  1  0  0  0  0
  3  4  2  0  0  0  0
  4  5  1  0  0  0  0
  5  6  2  0  0  0  0
  6  1  1  0  0  0  0
  1  7  1  0  0  0  0
  7  8  1  0  0  0  0
  8  9  2  0  0  0  0
  9  2  1  0  0  0  0
  3 10  1  0  0  0  0
  7 11  1  0  0  0  0
 11 12  1  0  0  0  0
 12 13  2  0  0  0  0
 12 14  1  0  0  0  0
 11 15  1  0  0  0  0
 15 16  1  0  0  0  0
 16 17  1  0  0  0  0
 17 18  1  0  0  0  0
 17 19  2  0  0  0  0
 16 20  1  0  0  0  0
 20 21  1  0  0  0  0
M  END
>  <Mol_ID> (114)
3478

>  <Formula> (114)
C10H11N5O4

>  <MolWeight> (114)
265.22544

>  <Cat> (114)
S8608

>  <Name> (114)
Adenosine Dialdehyde (ADOX)

>  <Synonyms> (114)
N/A

>  <Target> (114)
AdoHcy hydrolase

>  <Form> (114)
free base

>  <CAS> (114)
34240-05-6

>  <URL> (114)
http://www.selleckchem.com/products/adenosine-dialdehyde-adox.html

$$$$
S5107 Flavin mononucleotide.cdx
csChFnd80/01042310162D

 32 33  0  0  0  0  0  0  0  0999 V2000
    9.2604    5.5987    0.0000 N   0  0  0  0  0  0  0  0  0  0  0  0
    8.0598    6.3089    0.0000 C   0  0  0  0  0  0  0  0  0  0  0  0
   10.4846    6.2884    0.0000 C   0  0  0  0  0  0  0  0  0  0  0  0
    9.2604    4.1987    0.0000 C   0  0  0  0  0  0  0  0  0  0  0  0
    8.0716    7.7088    0.0000 C   0  0  0  0  0  0  0  0  0  0  0  0
    6.8415    5.6191    0.0000 C   0  0  0  0  0  0  0  0  0  0  0  0
   10.4964    7.6884    0.0000 C   0  0  0  0  0  0  0  0  0  0  0  0
   11.6911    5.5782    0.0000 N   0  0  0  0  0  0  0  0  0  0  0  0
    8.0524    3.5013    0.0000 C   0  0  1  0  0  0  0  0  0  0  0  0
    9.2899    8.3986    0.0000 N   0  0  0  0  0  0  0  0  0  0  0  0
    6.8651    8.4190    0.0000 C   0  0  0  0  0  0  0  0  0  0  0  0
    5.6321    6.3344    0.0000 C   0  0  0  0  0  0  0  0  0  0  0  0
   11.7206    8.3781    0.0000 C   0  0  0  0  0  0  0  0  0  0  0  0
   12.9064    6.2629    0.0000 C   0  0  0  0  0  0  0  0  0  0  0  0
    8.0524    2.0987    0.0000 C   0  0  1  0  0  0  0  0  0  0  0  0
    6.8422    4.2000    0.0000 O   0  0  0  0  0  0  0  0  0  0  0  0
    5.6498    7.7343    0.0000 C   0  0  0  0  0  0  0  0  0  0  0  0
    4.4197    5.6344    0.0000 C   0  0  0  0  0  0  0  0  0  0  0  0
   12.9212    7.6679    0.0000 N   0  0  0  0  0  0  0  0  0  0  0  0
   11.7206    9.7781    0.0000 O   0  0  0  0  0  0  0  0  0  0  0  0
   14.1189    5.5629    0.0000 O   0  0  0  0  0  0  0  0  0  0  0  0
    6.8411    1.3994    0.0000 C   0  0  1  0  0  0  0  0  0  0  0  0
    9.2660    1.3981    0.0000 O   0  0  0  0  0  0  0  0  0  0  0  0
    4.4374    8.4343    0.0000 C   0  0  0  0  0  0  0  0  0  0  0  0
    5.6281    2.0997    0.0000 C   0  0  0  0  0  0  0  0  0  0  0  0
    6.8411    0.0000    0.0000 O   0  0  0  0  0  0  0  0  0  0  0  0
    4.4159    1.3998    0.0000 O   0  0  0  0  0  0  0  0  0  0  0  0
    3.2034    2.0999    0.0000 P   0  0  3  0  0  0  0  0  0  0  0  0
    3.9033    3.3123    0.0000 O   0  0  0  0  0  0  0  0  0  0  0  0
    1.9909    2.7999    0.0000 O   0  0  0  0  0  0  0  0  0  0  0  0
    2.5033    0.8874    0.0000 O   0  5  0  0  0  0  0  0  0  0  0  0
    0.0000    0.9115    0.0000 Na  0  3  0  0  0  0  0  0  0  0  0  0
  1  2  1  0  0  0  0
  1  3  1  0  0  0  0
  1  4  1  0  0  0  0
  2  5  2  0  0  0  0
  2  6  1  0  0  0  0
  3  7  1  0  0  0  0
  3  8  2  0  0  0  0
  4  9  1  0  0  0  0
  5 10  1  0  0  0  0
  5 11  1  0  0  0  0
  6 12  2  0  0  0  0
  7 13  1  0  0  0  0
  7 10  2  0  0  0  0
  8 14  1  0  0  0  0
  9 15  1  0  0  0  0
  9 16  1  1  0  0  0
 11 17  2  0  0  0  0
 12 18  1  0  0  0  0
 12 17  1  0  0  0  0
 13 19  1  0  0  0  0
 13 20  2  0  0  0  0
 14 21  2  0  0  0  0
 14 19  1  0  0  0  0
 15 22  1  0  0  0  0
 15 23  1  6  0  0  0
 17 24  1  0  0  0  0
 22 25  1  0  0  0  0
 22 26  1  6  0  0  0
 25 27  1  0  0  0  0
 27 28  1  0  0  0  0
 28 29  1  0  0  0  0
 28 30  2  0  0  0  0
 28 31  1  0  0  0  0
M  END
>  <Mol_ID> (115)
3492

>  <Formula> (115)
C17H20N4NaO9P

>  <MolWeight> (115)
478.325631

>  <Cat> (115)
S5107

>  <Name> (115)
Flavin mononucleotide

>  <Synonyms> (115)
riboflavin-5'-phosphate, FMN

>  <Target> (115)
Others

>  <Form> (115)
sodium salt

>  <CAS> (115)
130-40-5

>  <URL> (115)
http://www.selleckchem.com/products/flavin-mononucleotide.html

$$$$
LLY-283.cdx
csChFnd80/01042310162D

 25 28  0  0  0  0  0  0  0  0999 V2000
    5.5072    9.9966    0.0000 C   0  0  0  0  0  0  0  0  0  0  0  0
    5.5072    8.5966    0.0000 C   0  0  0  0  0  0  0  0  0  0  0  0
    6.7196    7.8966    0.0000 N   0  0  0  0  0  0  0  0  0  0  0  0
    7.9320    8.5966    0.0000 C   0  0  0  0  0  0  0  0  0  0  0  0
    7.9320    9.9966    0.0000 N   0  0  0  0  0  0  0  0  0  0  0  0
    6.7196   10.6966    0.0000 C   0  0  0  0  0  0  0  0  0  0  0  0
    4.1757   10.4292    0.0000 C   0  0  0  0  0  0  0  0  0  0  0  0
    3.3528    9.2966    0.0000 C   0  0  0  0  0  0  0  0  0  0  0  0
    4.1757    8.1640    0.0000 N   0  0  0  0  0  0  0  0  0  0  0  0
    3.7431    6.8325    0.0000 C   0  0  2  0  0  0  0  0  0  0  0  0
    2.4116    6.3999    0.0000 O   0  0  0  0  0  0  0  0  0  0  0  0
    2.4116    4.9999    0.0000 C   0  0  1  0  0  0  0  0  0  0  0  0
    3.7431    4.5673    0.0000 C   0  0  2  0  0  0  0  0  0  0  0  0
    4.5660    5.6999    0.0000 C   0  0  1  0  0  0  0  0  0  0  0  0
    1.2790    4.1770    0.0000 C   0  0  2  0  0  0  0  0  0  0  0  0
    0.0000    4.7464    0.0000 O   0  0  0  0  0  0  0  0  0  0  0  0
    1.4253    2.7847    0.0000 C   0  0  0  0  0  0  0  0  0  0  0  0
    0.2927    1.9618    0.0000 C   0  0  0  0  0  0  0  0  0  0  0  0
    0.4390    0.5694    0.0000 C   0  0  0  0  0  0  0  0  0  0  0  0
    1.7180    0.0000    0.0000 C   0  0  0  0  0  0  0  0  0  0  0  0
    2.8506    0.8229    0.0000 C   0  0  0  0  0  0  0  0  0  0  0  0
    2.7043    2.2152    0.0000 C   0  0  0  0  0  0  0  0  0  0  0  0
    4.1757    3.2358    0.0000 O   0  0  0  0  0  0  0  0  0  0  0  0
    5.9660    5.6999    0.0000 O   0  0  0  0  0  0  0  0  0  0  0  0
    6.7196   12.0966    0.0000 N   0  0  0  0  0  0  0  0  0  0  0  0
  1  2  2  0  0  0  0
  2  3  1  0  0  0  0
  3  4  2  0  0  0  0
  4  5  1  0  0  0  0
  5  6  2  0  0  0  0
  6  1  1  0  0  0  0
  1  7  1  0  0  0  0
  7  8  2  0  0  0  0
  8  9  1  0  0  0  0
  9  2  1  0  0  0  0
 10  9  1  1  0  0  0
 10 11  1  0  0  0  0
 11 12  1  0  0  0  0
 12 13  1  0  0  0  0
 13 14  1  0  0  0  0
 14 10  1  0  0  0  0
 12 15  1  1  0  0  0
 15 16  1  1  0  0  0
 15 17  1  0  0  0  0
 17 18  2  0  0  0  0
 18 19  1  0  0  0  0
 19 20  2  0  0  0  0
 20 21  1  0  0  0  0
 21 22  2  0  0  0  0
 22 17  1  0  0  0  0
 13 23  1  6  0  0  0
 14 24  1  6  0  0  0
  6 25  1  0  0  0  0
M  END
>  <Mol_ID> (116)
3519

>  <Formula> (116)
C17H18N4O4

>  <MolWeight> (116)
342.34922

>  <Cat> (116)
S8479

>  <Name> (116)
LLY-283

>  <Synonyms> (116)
N/A

>  <Target> (116)
PRMT5

>  <Form> (116)
free base

>  <CAS> (116)
2040291-27-6

>  <URL> (116)
http://www.selleckchem.com/products/lly-283.html

$$$$
S5109 Ademetionine.cdx
csChFnd80/01042310162D

 27 29  0  0  0  0  0  0  0  0999 V2000
    8.7901    1.7945    0.0000 C   0  0  1  0  0  0  0  0  0  0  0  0
   10.1900    1.7860    0.0000 C   0  0  2  0  0  0  0  0  0  0  0  0
   10.6320    3.1154    0.0000 C   0  0  1  0  0  0  0  0  0  0  0  0
    9.5008    3.9466    0.0000 O   0  0  0  0  0  0  0  0  0  0  0  0
    8.3677    3.1263    0.0000 C   0  0  2  0  0  0  0  0  0  0  0  0
   11.9661    3.5399    0.0000 N   0  0  0  0  0  0  0  0  0  0  0  0
   13.0937    2.7101    0.0000 C   0  0  0  0  0  0  0  0  0  0  0  0
   14.2317    3.5259    0.0000 N   0  0  0  0  0  0  0  0  0  0  0  0
   12.4068    4.8686    0.0000 C   0  0  0  0  0  0  0  0  0  0  0  0
   13.8132    4.8600    0.0000 C   0  0  0  0  0  0  0  0  0  0  0  0
   14.5202    6.0674    0.0000 C   0  0  0  0  0  0  0  0  0  0  0  0
   13.8250    7.2888    0.0000 N   0  0  0  0  0  0  0  0  0  0  0  0
   12.4214    7.2974    0.0000 C   0  0  0  0  0  0  0  0  0  0  0  0
   11.7129    6.0877    0.0000 N   0  0  0  0  0  0  0  0  0  0  0  0
   15.9202    6.0588    0.0000 N   0  0  0  0  0  0  0  0  0  0  0  0
    7.0382    3.5648    0.0000 C   0  0  0  0  0  0  0  0  0  0  0  0
    7.9596    0.6674    0.0000 O   0  0  0  0  0  0  0  0  0  0  0  0
   11.0055    0.6480    0.0000 O   0  0  0  0  0  0  0  0  0  0  0  0
    6.0421    2.5809    0.0000 S   0  3  3  0  0  0  0  0  0  0  0  0
    4.6921    2.9516    0.0000 C   0  0  0  0  0  0  0  0  0  0  0  0
    6.3962    1.2264    0.0000 C   0  0  0  0  0  0  0  0  0  0  0  0
    3.6961    1.9677    0.0000 C   0  0  0  0  0  0  0  0  0  0  0  0
    2.3461    2.3384    0.0000 C   0  0  1  0  0  0  0  0  0  0  0  0
    1.3500    1.3545    0.0000 C   0  0  0  0  0  0  0  0  0  0  0  0
    1.9920    3.6928    0.0000 N   0  0  0  0  0  0  0  0  0  0  0  0
    0.0000    1.7251    0.0000 O   0  5  0  0  0  0  0  0  0  0  0  0
    1.7041    0.0000    0.0000 O   0  0  0  0  0  0  0  0  0  0  0  0
  5  1  1  0  0  0  0
  1  2  1  0  0  0  0
  1 17  1  6  0  0  0
  2 18  1  6  0  0  0
  2  3  1  0  0  0  0
  3  6  1  1  0  0  0
  3  4  1  0  0  0  0
  4  5  1  0  0  0  0
  5 16  1  1  0  0  0
  6  7  1  0  0  0  0
  9  6  1  0  0  0  0
  7  8  2  0  0  0  0
  8 10  1  0  0  0  0
  9 10  2  0  0  0  0
  9 14  1  0  0  0  0
 10 11  1  0  0  0  0
 11 15  1  0  0  0  0
 11 12  2  0  0  0  0
 12 13  1  0  0  0  0
 13 14  2  0  0  0  0
 16 19  1  0  0  0  0
 19 20  1  0  0  0  0
 19 21  1  0  0  0  0
 20 22  1  0  0  0  0
 22 23  1  0  0  0  0
 23 24  1  0  0  0  0
 23 25  1  1  0  0  0
 24 26  1  0  0  0  0
 24 27  2  0  0  0  0
M  END
>  <Mol_ID> (117)
3527

>  <Formula> (117)
C15H22N6O5S

>  <MolWeight> (117)
398.43738

>  <Cat> (117)
S5109

>  <Name> (117)
Ademetionine

>  <Synonyms> (117)
AdoMet, S-Adenosylmethionine, SAMe

>  <Target> (117)
Others

>  <Form> (117)
inner salt

>  <CAS> (117)
29908-03-0

>  <URL> (117)
http://www.selleckchem.com/products/ademetionine.html

$$$$
S5307 2'-deoxy-2'-fluoro-2'-C-methyluridine.cdx
csChFnd80/01042310162D

 18 19  0  0  0  0  0  0  0  0999 V2000
    4.5635    5.5237    0.0000 C   0  0  0  0  0  0  0  0  0  0  0  0
    4.9960    4.1921    0.0000 C   0  0  1  0  0  0  0  0  0  0  0  0
    3.6268    4.4833    0.0000 F   0  0  0  0  0  0  0  0  0  0  0  0
    6.3655    4.4833    0.0000 C   0  0  2  0  0  0  0  0  0  0  0  0
    6.9350    5.7621    0.0000 O   0  0  0  0  0  0  0  0  0  0  0  0
    7.0655    3.2708    0.0000 C   0  0  1  0  0  0  0  0  0  0  0  0
    8.4579    3.1245    0.0000 C   0  0  0  0  0  0  0  0  0  0  0  0
    9.2806    4.2571    0.0000 O   0  0  0  0  0  0  0  0  0  0  0  0
    6.1288    2.2304    0.0000 O   0  0  0  0  0  0  0  0  0  0  0  0
    4.8498    2.7999    0.0000 C   0  0  1  0  0  0  0  0  0  0  0  0
    3.6373    2.0999    0.0000 N   0  0  0  0  0  0  0  0  0  0  0  0
    3.6372    0.6999    0.0000 C   0  0  0  0  0  0  0  0  0  0  0  0
    2.4248    0.0000    0.0000 C   0  0  0  0  0  0  0  0  0  0  0  0
    1.2124    0.7000    0.0000 C   0  0  0  0  0  0  0  0  0  0  0  0
    0.0000    0.0002    0.0000 O   0  0  0  0  0  0  0  0  0  0  0  0
    1.2124    2.0999    0.0000 N   0  0  0  0  0  0  0  0  0  0  0  0
    2.4249    2.7999    0.0000 C   0  0  0  0  0  0  0  0  0  0  0  0
    2.4249    4.2000    0.0000 O   0  0  0  0  0  0  0  0  0  0  0  0
  2  1  1  1  0  0  0
  2  3  1  6  0  0  0
  2  4  1  0  0  0  0
  2 10  1  0  0  0  0
  4  5  1  6  0  0  0
  4  6  1  0  0  0  0
  6  7  1  1  0  0  0
  6  9  1  0  0  0  0
  7  8  1  0  0  0  0
  9 10  1  0  0  0  0
 10 11  1  1  0  0  0
 11 12  1  0  0  0  0
 11 17  1  0  0  0  0
 12 13  2  0  0  0  0
 13 14  1  0  0  0  0
 14 15  2  0  0  0  0
 14 16  1  0  0  0  0
 16 17  1  0  0  0  0
 17 18  2  0  0  0  0
M  END
>  <Mol_ID> (118)
3661

>  <Formula> (118)
C10H13FN2O5

>  <MolWeight> (118)
260.2190232

>  <Cat> (118)
S5307

>  <Name> (118)
2'-deoxy-2'-fluoro-2'-C-methyluridine

>  <Synonyms> (118)
2'-deoxy-2'-fluoro-2'-C-methyluridine

>  <Target> (118)
HCV Protease

>  <Form> (118)
free base

>  <CAS> (118)
863329-66-2

>  <URL> (118)
http://selleckchem.com/products/psi-6206-ro-2433-gs-331007.html

$$$$
S5284 Adenosine 5'-monophosphate monohydrate.cdx
csChFnd80/01042310162D

 24 25  0  0  0  0  0  0  0  0999 V2000
    6.3849    5.3916    0.0000 N   0  0  0  0  0  0  0  0  0  0  0  0
    7.6945    5.8465    0.0000 C   0  0  0  0  0  0  0  0  0  0  0  0
    5.9662    4.0557    0.0000 C   0  0  2  0  0  0  0  0  0  0  0  0
    5.5592    6.5263    0.0000 C   0  0  0  0  0  0  0  0  0  0  0  0
    7.7023    7.2396    0.0000 C   0  0  0  0  0  0  0  0  0  0  0  0
    8.9184    5.1345    0.0000 N   0  0  0  0  0  0  0  0  0  0  0  0
    4.6719    3.6269    0.0000 O   0  0  0  0  0  0  0  0  0  0  0  0
    6.8047    2.9478    0.0000 C   0  0  1  0  0  0  0  0  0  0  0  0
    6.3717    7.6632    0.0000 N   0  0  0  0  0  0  0  0  0  0  0  0
    8.9178    7.9406    0.0000 C   0  0  0  0  0  0  0  0  0  0  0  0
   10.1143    5.8417    0.0000 C   0  0  0  0  0  0  0  0  0  0  0  0
    4.6644    2.2266    0.0000 C   0  0  1  0  0  0  0  0  0  0  0  0
    6.0133    1.8154    0.0000 C   0  0  1  0  0  0  0  0  0  0  0  0
    8.2045    2.9478    0.0000 O   0  0  0  0  0  0  0  0  0  0  0  0
   10.1285    7.2438    0.0000 N   0  0  0  0  0  0  0  0  0  0  0  0
    8.9178    9.3406    0.0000 N   0  0  0  0  0  0  0  0  0  0  0  0
    3.5372    1.3964    0.0000 C   0  0  0  0  0  0  0  0  0  0  0  0
    6.4674    0.4911    0.0000 O   0  0  0  0  0  0  0  0  0  0  0  0
    2.2545    1.9575    0.0000 O   0  0  0  0  0  0  0  0  0  0  0  0
    1.1273    1.1273    0.0000 P   0  0  0  0  0  0  0  0  0  0  0  0
    1.9575    0.0000    0.0000 O   0  0  0  0  0  0  0  0  0  0  0  0
    0.2970    2.2545    0.0000 O   0  0  0  0  0  0  0  0  0  0  0  0
    0.0000    0.2970    0.0000 O   0  0  0  0  0  0  0  0  0  0  0  0
    2.0907    5.8283    0.0000 O   0  0  0  0  0  0  0  0  0  0  0  0
  1  2  1  0  0  0  0
  3  1  1  1  0  0  0
  1  4  1  0  0  0  0
  2  5  2  0  0  0  0
  2  6  1  0  0  0  0
  3  7  1  0  0  0  0
  3  8  1  0  0  0  0
  4  9  2  0  0  0  0
  5 10  1  0  0  0  0
  5  9  1  0  0  0  0
  6 11  2  0  0  0  0
  7 12  1  0  0  0  0
  8 13  1  0  0  0  0
  8 14  1  6  0  0  0
 10 15  2  0  0  0  0
 10 16  1  0  0  0  0
 11 15  1  0  0  0  0
 12 17  1  1  0  0  0
 12 13  1  0  0  0  0
 13 18  1  6  0  0  0
 17 19  1  0  0  0  0
 19 20  1  0  0  0  0
 20 21  1  0  0  0  0
 20 22  1  0  0  0  0
 20 23  2  0  0  0  0
M  END
>  <Mol_ID> (119)
3689

>  <Formula> (119)
C10H16N5O8P

>  <MolWeight> (119)
365.236501

>  <Cat> (119)
S5284

>  <Name> (119)
Adenosine 5'-monophosphate monohydrate

>  <Synonyms> (119)
5'-Adenylic acid, 5'-AMP

>  <Target> (119)
AMPK

>  <Form> (119)
hydrate 

>  <CAS> (119)
18422-05-4

>  <URL> (119)
http://selleckchem.com/products/adenosine-5-monophosphate-monohydrate.html

$$$$
S5402 Dasabuvir(ABT-333).cdx
csChFnd80/01042310162D

 35 38  0  0  0  0  0  0  0  0999 V2000
    0.0000    1.9124    0.0000 C   0  0  0  0  0  0  0  0  0  0  0  0
    1.2124    1.2124    0.0000 S   0  0  0  0  0  0  0  0  0  0  0  0
    2.4249    0.5124    0.0000 N   0  0  0  0  0  0  0  0  0  0  0  0
    3.6373    1.2124    0.0000 C   0  0  0  0  0  0  0  0  0  0  0  0
    3.6373    2.6124    0.0000 C   0  0  0  0  0  0  0  0  0  0  0  0
    4.8497    3.3124    0.0000 C   0  0  0  0  0  0  0  0  0  0  0  0
    6.0622    2.6124    0.0000 C   0  0  0  0  0  0  0  0  0  0  0  0
    6.0622    1.2124    0.0000 C   0  0  0  0  0  0  0  0  0  0  0  0
    4.8497    0.5124    0.0000 C   0  0  0  0  0  0  0  0  0  0  0  0
    7.2746    0.5124    0.0000 C   0  0  0  0  0  0  0  0  0  0  0  0
    8.4870    1.2124    0.0000 C   0  0  0  0  0  0  0  0  0  0  0  0
    8.4870    2.6124    0.0000 C   0  0  0  0  0  0  0  0  0  0  0  0
    9.6995    3.3124    0.0000 C   0  0  0  0  0  0  0  0  0  0  0  0
   10.9119    2.6124    0.0000 C   0  0  0  0  0  0  0  0  0  0  0  0
   12.1244    3.3124    0.0000 C   0  0  0  0  0  0  0  0  0  0  0  0
   13.3368    2.6124    0.0000 N   0  0  0  0  0  0  0  0  0  0  0  0
   14.5492    3.3124    0.0000 C   0  0  0  0  0  0  0  0  0  0  0  0
   14.5492    4.7124    0.0000 O   0  0  0  0  0  0  0  0  0  0  0  0
   15.7617    2.6124    0.0000 N   0  0  0  0  0  0  0  0  0  0  0  0
   15.7617    1.2124    0.0000 C   0  0  0  0  0  0  0  0  0  0  0  0
   16.9741    0.5124    0.0000 O   0  0  0  0  0  0  0  0  0  0  0  0
   14.5492    0.5124    0.0000 C   0  0  0  0  0  0  0  0  0  0  0  0
   13.3368    1.2124    0.0000 C   0  0  0  0  0  0  0  0  0  0  0  0
   12.1244    4.7124    0.0000 C   0  0  0  0  0  0  0  0  0  0  0  0
   10.9119    5.4124    0.0000 C   0  0  0  0  0  0  0  0  0  0  0  0
   10.9119    6.8124    0.0000 C   0  0  0  0  0  0  0  0  0  0  0  0
    9.6995    4.7124    0.0000 C   0  0  0  0  0  0  0  0  0  0  0  0
    8.4870    5.4124    0.0000 O   0  0  0  0  0  0  0  0  0  0  0  0
    7.2746    3.3124    0.0000 C   0  0  0  0  0  0  0  0  0  0  0  0
    1.9124    2.4249    0.0000 O   0  0  0  0  0  0  0  0  0  0  0  0
    0.5124    0.0000    0.0000 O   0  0  0  0  0  0  0  0  0  0  0  0
    9.6995    7.5124    0.0000 C   0  0  0  0  0  0  0  0  0  0  0  0
   12.1244    7.5124    0.0000 C   0  0  0  0  0  0  0  0  0  0  0  0
   10.9119    8.2173    0.0000 C   0  0  0  0  0  0  0  0  0  0  0  0
    7.2746    4.7124    0.0000 C   0  0  0  0  0  0  0  0  0  0  0  0
  9  8  2  0  0  0  0
  9  4  1  0  0  0  0
  4  5  2  0  0  0  0
  5  6  1  0  0  0  0
  6  7  2  0  0  0  0
  7  8  1  0  0  0  0
  7 29  1  0  0  0  0
 29 12  2  0  0  0  0
 12 11  1  0  0  0  0
 11 10  2  0  0  0  0
 10  8  1  0  0  0  0
 13 14  2  0  0  0  0
 13 27  1  0  0  0  0
 27 25  2  0  0  0  0
 25 24  1  0  0  0  0
 24 15  2  0  0  0  0
 15 14  1  0  0  0  0
 17 16  1  0  0  0  0
 17 19  1  0  0  0  0
 19 20  1  0  0  0  0
 20 22  1  0  0  0  0
 22 23  2  0  0  0  0
 23 16  1  0  0  0  0
  1  2  1  0  0  0  0
  2  3  1  0  0  0  0
  3  4  1  0  0  0  0
 12 13  1  0  0  0  0
 15 16  1  0  0  0  0
 17 18  2  0  0  0  0
 20 21  2  0  0  0  0
 25 26  1  0  0  0  0
 27 28  1  0  0  0  0
  2 30  2  0  0  0  0
  2 31  2  0  0  0  0
 26 32  1  0  0  0  0
 26 33  1  0  0  0  0
 26 34  1  0  0  0  0
 28 35  1  0  0  0  0
M  END
>  <Mol_ID> (120)
3695

>  <Formula> (120)
C26H27N3O5S

>  <MolWeight> (120)
493.57468

>  <Cat> (120)
S5402

>  <Synonyms> (120)
N/A

>  <Target> (120)
HCV Protease

>  <Form> (120)
free base

>  <CAS> (120)
1132935-63-7

>  <URL> (120)
http://selleckchem.com/products/dasabuvir-abt-333.html

$$$$
S5215 Abacavir.cdx
csChFnd80/01042310162D

 21 24  0  0  0  0  0  0  0  0999 V2000
    3.8365    7.8098    0.0000 C   0  0  0  0  0  0  0  0  0  0  0  0
    3.8313    6.4098    0.0000 C   0  0  0  0  0  0  0  0  0  0  0  0
    2.6292    8.5144    0.0000 C   0  0  0  0  0  0  0  0  0  0  0  0
    5.1696    8.2375    0.0000 N   0  0  0  0  0  0  0  0  0  0  0  0
    5.1612    5.9723    0.0000 N   0  0  0  0  0  0  0  0  0  0  0  0
    2.6216    5.7174    0.0000 N   0  0  0  0  0  0  0  0  0  0  0  0
    2.6292    9.9144    0.0000 N   0  0  0  0  0  0  0  0  0  0  0  0
    1.4170    7.8220    0.0000 N   0  0  0  0  0  0  0  0  0  0  0  0
    5.9883    7.1019    0.0000 C   0  0  0  0  0  0  0  0  0  0  0  0
    5.5889    4.6392    0.0000 C   0  0  2  0  0  0  0  0  0  0  0  0
    1.4106    6.4241    0.0000 C   0  0  0  0  0  0  0  0  0  0  0  0
    1.4187   10.6132    0.0000 C   0  0  0  0  0  0  0  0  0  0  0  0
    4.7620    3.5095    0.0000 C   0  0  0  0  0  0  0  0  0  0  0  0
    6.9185    4.2012    0.0000 C   0  0  0  0  0  0  0  0  0  0  0  0
    0.1981    5.7241    0.0000 N   0  0  0  0  0  0  0  0  0  0  0  0
    0.0000   10.5246    0.0000 C   0  0  0  0  0  0  0  0  0  0  0  0
    0.6523   11.7579    0.0000 C   0  0  0  0  0  0  0  0  0  0  0  0
    5.5798    2.3738    0.0000 C   0  0  1  0  0  0  0  0  0  0  0  0
    6.9130    2.8013    0.0000 C   0  0  0  0  0  0  0  0  0  0  0  0
    5.1421    1.0440    0.0000 C   0  0  0  0  0  0  0  0  0  0  0  0
    6.0749    0.0000    0.0000 O   0  0  0  0  0  0  0  0  0  0  0  0
  1  2  2  0  0  0  0
  1  3  1  0  0  0  0
  1  4  1  0  0  0  0
  2  5  1  0  0  0  0
  2  6  1  0  0  0  0
  3  7  1  0  0  0  0
  3  8  2  0  0  0  0
  4  9  2  0  0  0  0
 10  5  1  1  0  0  0
  5  9  1  0  0  0  0
  6 11  2  0  0  0  0
  7 12  1  0  0  0  0
  8 11  1  0  0  0  0
 10 13  1  0  0  0  0
 10 14  1  0  0  0  0
 11 15  1  0  0  0  0
 12 16  1  0  0  0  0
 12 17  1  0  0  0  0
 13 18  1  0  0  0  0
 14 19  2  0  0  0  0
 16 17  1  0  0  0  0
 18 20  1  1  0  0  0
 18 19  1  0  0  0  0
 20 21  1  0  0  0  0
M  END
>  <Mol_ID> (121)
3703

>  <Formula> (121)
C14H18N6O

>  <MolWeight> (121)
286.33232

>  <Cat> (121)
S5215

>  <Name> (121)
Abacavir

>  <Synonyms> (121)
N/A

>  <Target> (121)
Reverse Transcriptase

>  <Form> (121)
free base

>  <CAS> (121)
136470-78-5

>  <URL> (121)
http://selleckchem.com/products/abacavir.html

$$$$
S5316 NU2058.cdx
csChFnd80/01042310162D

 18 20  0  0  0  0  0  0  0  0999 V2000
    4.8434    0.0000    0.0000 N   0  0  0  0  0  0  0  0  0  0  0  0
    3.6325    2.1079    0.0000 N   0  0  0  0  0  0  0  0  0  0  0  0
    6.0543    0.7027    0.0000 C   0  0  0  0  0  0  0  0  0  0  0  0
    6.0543    2.1079    0.0000 C   0  0  0  0  0  0  0  0  0  0  0  0
    4.8434    2.8104    0.0000 C   0  0  0  0  0  0  0  0  0  0  0  0
    3.6325    0.7027    0.0000 C   0  0  0  0  0  0  0  0  0  0  0  0
    7.4145    2.5263    0.0000 N   0  0  0  0  0  0  0  0  0  0  0  0
    7.4145    0.2841    0.0000 N   0  0  0  0  0  0  0  0  0  0  0  0
    8.1918    1.4052    0.0000 C   0  0  0  0  0  0  0  0  0  0  0  0
    4.8434    4.2006    0.0000 O   0  0  0  0  0  0  0  0  0  0  0  0
    2.4216    0.0000    0.0000 N   0  0  0  0  0  0  0  0  0  0  0  0
    3.6325    4.9033    0.0000 C   0  0  0  0  0  0  0  0  0  0  0  0
    2.4216    4.2006    0.0000 C   0  0  0  0  0  0  0  0  0  0  0  0
    2.4216    2.7954    0.0000 C   0  0  0  0  0  0  0  0  0  0  0  0
    1.2109    4.9033    0.0000 C   0  0  0  0  0  0  0  0  0  0  0  0
    1.2109    2.0929    0.0000 C   0  0  0  0  0  0  0  0  0  0  0  0
    0.0000    4.2155    0.0000 C   0  0  0  0  0  0  0  0  0  0  0  0
    0.0000    2.7954    0.0000 C   0  0  0  0  0  0  0  0  0  0  0  0
  3  1  1  0  0  0  0
  6  1  2  0  0  0  0
  2  6  1  0  0  0  0
  5  2  2  0  0  0  0
  4  3  2  0  0  0  0
  8  3  1  0  0  0  0
  7  4  1  0  0  0  0
  5  4  1  0  0  0  0
 10  5  1  0  0  0  0
 11  6  1  0  0  0  0
  9  7  2  0  0  0  0
  9  8  1  0  0  0  0
 12 10  1  0  0  0  0
 13 12  1  0  0  0  0
 14 13  1  0  0  0  0
 15 13  1  0  0  0  0
 16 14  1  0  0  0  0
 17 15  1  0  0  0  0
 18 16  1  0  0  0  0
 18 17  1  0  0  0  0
M  END
>  <Mol_ID> (122)
3712

>  <Formula> (122)
C12H17N5O

>  <MolWeight> (122)
247.29628

>  <Cat> (122)
S5316

>  <Name> (122)
NU2058

>  <Synonyms> (122)
O(6)-Cyclohexylmethylguanine

>  <Target> (122)
CDK

>  <Form> (122)
free base

>  <CAS> (122)
161058-83-9

>  <URL> (122)
http://selleckchem.com/products/nu2058.html

$$$$
S5246 Entecavir.cdx
csChFnd80/01042310162D

 20 22  0  0  0  0  0  0  0  0999 V2000
    4.9772    5.3491    0.0000 N   0  0  0  0  0  0  0  0  0  0  0  0
    3.6386    5.7666    0.0000 C   0  0  0  0  0  0  0  0  0  0  0  0
    5.4252    4.0227    0.0000 C   0  0  2  0  0  0  0  0  0  0  0  0
    5.7872    6.4910    0.0000 C   0  0  0  0  0  0  0  0  0  0  0  0
    3.6272    7.1665    0.0000 C   0  0  0  0  0  0  0  0  0  0  0  0
    2.4336    5.0577    0.0000 N   0  0  0  0  0  0  0  0  0  0  0  0
    6.7637    3.6052    0.0000 C   0  0  0  0  0  0  0  0  0  0  0  0
    4.6151    2.8808    0.0000 C   0  0  0  0  0  0  0  0  0  0  0  0
    4.9515    7.6142    0.0000 N   0  0  0  0  0  0  0  0  0  0  0  0
    2.4017    7.8575    0.0000 C   0  0  0  0  0  0  0  0  0  0  0  0
    1.2124    5.7317    0.0000 C   0  0  0  0  0  0  0  0  0  0  0  0
    6.7751    2.2053    0.0000 C   0  0  1  0  0  0  0  0  0  0  0  0
    7.8880    4.4394    0.0000 C   0  0  0  0  0  0  0  0  0  0  0  0
    5.4508    1.7576    0.0000 C   0  0  1  0  0  0  0  0  0  0  0  0
    1.1966    7.1452    0.0000 N   0  0  0  0  0  0  0  0  0  0  0  0
    2.4017    9.2575    0.0000 O   0  0  0  0  0  0  0  0  0  0  0  0
    0.0000    5.0317    0.0000 N   0  0  0  0  0  0  0  0  0  0  0  0
    7.9159    1.3937    0.0000 C   0  0  0  0  0  0  0  0  0  0  0  0
    5.0336    0.4212    0.0000 O   0  0  0  0  0  0  0  0  0  0  0  0
    7.7835    0.0000    0.0000 O   0  0  0  0  0  0  0  0  0  0  0  0
  1  2  1  0  0  0  0
  3  1  1  6  0  0  0
  1  4  1  0  0  0  0
  2  5  2  0  0  0  0
  2  6  1  0  0  0  0
  3  7  1  0  0  0  0
  3  8  1  0  0  0  0
  4  9  2  0  0  0  0
  5 10  1  0  0  0  0
  5  9  1  0  0  0  0
  7 12  1  0  0  0  0
  7 13  2  0  0  0  0
  8 14  1  0  0  0  0
 10 15  1  0  0  0  0
 10 16  2  0  0  0  0
 11 17  1  0  0  0  0
 11 15  2  0  0  0  0
 12 18  1  6  0  0  0
 12 14  1  0  0  0  0
 14 19  1  1  0  0  0
 18 20  1  0  0  0  0
 11  6  1  0  0  0  0
M  END
>  <Mol_ID> (123)
3720

>  <Formula> (123)
C12H15N5O3

>  <MolWeight> (123)
277.2792

>  <Cat> (123)
S5246

>  <Name> (123)
Entecavir

>  <Synonyms> (123)
N/A

>  <Target> (123)
Reverse Transcriptase

>  <Form> (123)
free base

>  <CAS> (123)
142217-69-4

>  <URL> (123)
http://selleckchem.com/products/entecavir.html

$$$$
S5297 Vidarabine monohydrate.cdx
csChFnd80/01042310162D

 20 21  0  0  0  0  0  0  0  0999 V2000
    4.1810    6.9304    0.0000 N   0  0  0  0  0  0  0  0  0  0  0  0
    5.5154    7.3563    0.0000 C   0  0  0  0  0  0  0  0  0  0  0  0
    3.7396    5.6018    0.0000 C   0  0  2  0  0  0  0  0  0  0  0  0
    3.3610    8.0786    0.0000 C   0  0  0  0  0  0  0  0  0  0  0  0
    5.5279    8.7578    0.0000 C   0  0  0  0  0  0  0  0  0  0  0  0
    6.7146    6.6489    0.0000 N   0  0  0  0  0  0  0  0  0  0  0  0
    2.4184    5.1915    0.0000 O   0  0  0  0  0  0  0  0  0  0  0  0
    4.5617    4.4758    0.0000 C   0  0  2  0  0  0  0  0  0  0  0  0
    4.2016    9.1981    0.0000 N   0  0  0  0  0  0  0  0  0  0  0  0
    6.7369    9.4537    0.0000 C   0  0  0  0  0  0  0  0  0  0  0  0
    7.9393    7.3489    0.0000 C   0  0  0  0  0  0  0  0  0  0  0  0
    2.4139    3.7712    0.0000 C   0  0  1  0  0  0  0  0  0  0  0  0
    3.7177    3.3396    0.0000 C   0  0  1  0  0  0  0  0  0  0  0  0
    5.9616    4.4758    0.0000 O   0  0  0  0  0  0  0  0  0  0  0  0
    7.9415    8.7566    0.0000 N   0  0  0  0  0  0  0  0  0  0  0  0
    6.7369   10.8537    0.0000 N   0  0  0  0  0  0  0  0  0  0  0  0
    1.2735    2.9592    0.0000 C   0  0  0  0  0  0  0  0  0  0  0  0
    4.1349    2.0031    0.0000 O   0  0  0  0  0  0  0  0  0  0  0  0
    0.0000    3.5408    0.0000 O   0  0  0  0  0  0  0  0  0  0  0  0
    4.1880    0.0000    0.0000 O   0  0  0  0  0  0  0  0  0  0  0  0
  1  2  1  0  0  0  0
  3  1  1  1  0  0  0
  1  4  1  0  0  0  0
  2  5  2  0  0  0  0
  2  6  1  0  0  0  0
  3  7  1  0  0  0  0
  3  8  1  0  0  0  0
  4  9  2  0  0  0  0
  5 10  1  0  0  0  0
  5  9  1  0  0  0  0
  6 11  2  0  0  0  0
  7 12  1  0  0  0  0
  8 13  1  0  0  0  0
  8 14  1  1  0  0  0
 10 15  2  0  0  0  0
 10 16  1  0  0  0  0
 11 15  1  0  0  0  0
 12 17  1  1  0  0  0
 12 13  1  0  0  0  0
 13 18  1  6  0  0  0
 17 19  1  0  0  0  0
M  END
>  <Mol_ID> (124)
3734

>  <Formula> (124)
C10H15N5O5

>  <MolWeight> (124)
285.2566

>  <Cat> (124)
S5297

>  <Name> (124)
Vidarabine monohydrate

>  <Synonyms> (124)
Spongoadenosine monohydrate, Vira-A monohydrate

>  <Target> (124)
DNA/RNA Synthesis

>  <Form> (124)
hydrate 

>  <CAS> (124)
24356-66-9

>  <URL> (124)
http://selleckchem.com/products/vidarabine-monohydrate.html

$$$$
S5362 Citicholine.cdx
csChFnd80/01042310162D

 31 32  0  0  0  0  0  0  0  0999 V2000
    4.8356    3.9789    0.0000 C   0  0  2  0  0  0  0  0  0  0  0  0
    3.6281    3.2750    0.0000 N   0  0  0  0  0  0  0  0  0  0  0  0
    6.1228    3.4156    0.0000 O   0  0  0  0  0  0  0  0  0  0  0  0
    4.9794    5.3740    0.0000 C   0  0  1  0  0  0  0  0  0  0  0  0
    2.4111    3.9722    0.0000 C   0  0  0  0  0  0  0  0  0  0  0  0
    3.6362    1.8725    0.0000 C   0  0  0  0  0  0  0  0  0  0  0  0
    7.0554    4.4646    0.0000 C   0  0  1  0  0  0  0  0  0  0  0  0
    6.3469    5.6739    0.0000 C   0  0  1  0  0  0  0  0  0  0  0  0
    3.9368    6.3049    0.0000 O   0  0  0  0  0  0  0  0  0  0  0  0
    1.1988    3.2609    0.0000 N   0  0  0  0  0  0  0  0  0  0  0  0
    2.4047    5.3698    0.0000 O   0  0  0  0  0  0  0  0  0  0  0  0
    2.4256    1.1641    0.0000 C   0  0  0  0  0  0  0  0  0  0  0  0
    8.4472    4.3365    0.0000 C   0  0  0  0  0  0  0  0  0  0  0  0
    6.9063    6.9547    0.0000 O   0  0  0  0  0  0  0  0  0  0  0  0
    1.2069    1.8584    0.0000 C   0  0  0  0  0  0  0  0  0  0  0  0
    9.0334    3.0643    0.0000 O   0  0  0  0  0  0  0  0  0  0  0  0
    0.0000    1.1535    0.0000 N   0  0  0  0  0  0  0  0  0  0  0  0
   10.4175    2.9369    0.0000 P   0  0  3  0  0  0  0  0  0  0  0  0
   11.8093    2.8087    0.0000 O   0  0  0  0  0  0  0  0  0  0  0  0
   10.2884    1.5337    0.0000 O   0  0  0  0  0  0  0  0  0  0  0  0
   10.5446    4.3172    0.0000 O   0  0  0  0  0  0  0  0  0  0  0  0
   12.3876    1.5538    0.0000 P   0  0  3  0  0  0  0  0  0  0  0  0
   13.6718    2.1456    0.0000 O   0  0  0  0  0  0  0  0  0  0  0  0
   11.1330    0.9758    0.0000 O   0  0  0  0  0  0  0  0  0  0  0  0
   12.9725    0.2844    0.0000 O   0  5  0  0  0  0  0  0  0  0  0  0
   14.8080    1.3423    0.0000 C   0  0  0  0  0  0  0  0  0  0  0  0
   16.0858    1.9311    0.0000 C   0  0  0  0  0  0  0  0  0  0  0  0
   17.2183    1.1304    0.0000 N   0  3  0  0  0  0  0  0  0  0  0  0
   18.0328    2.2825    0.0000 C   0  0  0  0  0  0  0  0  0  0  0  0
   16.4191    0.0000    0.0000 C   0  0  0  0  0  0  0  0  0  0  0  0
   18.3596    0.3235    0.0000 C   0  0  0  0  0  0  0  0  0  0  0  0
  1  2  1  1  0  0  0
  1  3  1  0  0  0  0
  1  4  1  0  0  0  0
  2  5  1  0  0  0  0
  2  6  1  0  0  0  0
  3  7  1  0  0  0  0
  4  8  1  0  0  0  0
  4  9  1  6  0  0  0
  5 10  1  0  0  0  0
  5 11  2  0  0  0  0
  6 12  2  0  0  0  0
  7 13  1  1  0  0  0
  7  8  1  0  0  0  0
  8 14  1  6  0  0  0
 10 15  2  0  0  0  0
 12 15  1  0  0  0  0
 13 16  1  0  0  0  0
 15 17  1  0  0  0  0
 16 18  1  0  0  0  0
 18 19  1  0  0  0  0
 18 20  1  0  0  0  0
 18 21  2  0  0  0  0
 19 22  1  0  0  0  0
 22 23  1  0  0  0  0
 22 24  2  0  0  0  0
 22 25  1  0  0  0  0
 23 26  1  0  0  0  0
 26 27  1  0  0  0  0
 27 28  1  0  0  0  0
 28 29  1  0  0  0  0
 28 30  1  0  0  0  0
 28 31  1  0  0  0  0
M  END
>  <Mol_ID> (125)
3818

>  <Formula> (125)
C14H26N4O11P2

>  <MolWeight> (125)
488.323962

>  <Cat> (125)
S5362

>  <Name> (125)
Citicholine

>  <Synonyms> (125)
CDP-choline, cytidine 5'-diphosphocholine

>  <Target> (125)
Others

>  <Form> (125)
inner salt

>  <CAS> (125)
987-78-0

>  <URL> (125)
http://selleckchem.com/products/citicholine.html

$$$$
S5374 5'-Cytidylic acid.cdx
csChFnd80/01042310162D

 21 22  0  0  0  0  0  0  0  0999 V2000
    7.2166    2.5112    0.0000 C   0  0  2  0  0  0  0  0  0  0  0  0
    8.5707    2.8667    0.0000 N   0  0  0  0  0  0  0  0  0  0  0  0
    6.1436    3.3725    0.0000 O   0  0  0  0  0  0  0  0  0  0  0  0
    6.7141    1.2124    0.0000 C   0  0  1  0  0  0  0  0  0  0  0  0
    9.5676    1.8746    0.0000 C   0  0  0  0  0  0  0  0  0  0  0  0
    8.9453    4.1982    0.0000 C   0  0  0  0  0  0  0  0  0  0  0  0
    4.9849    2.6544    0.0000 C   0  0  1  0  0  0  0  0  0  0  0  0
    5.2825    1.2907    0.0000 C   0  0  1  0  0  0  0  0  0  0  0  0
    7.4141    0.0000    0.0000 O   0  0  0  0  0  0  0  0  0  0  0  0
   10.9314    2.2180    0.0000 N   0  0  0  0  0  0  0  0  0  0  0  0
    9.1967    0.5246    0.0000 O   0  0  0  0  0  0  0  0  0  0  0  0
   10.2913    4.5652    0.0000 C   0  0  0  0  0  0  0  0  0  0  0  0
    3.6957    3.2003    0.0000 C   0  0  0  0  0  0  0  0  0  0  0  0
    4.3693    0.2296    0.0000 O   0  0  0  0  0  0  0  0  0  0  0  0
   11.2843    3.5848    0.0000 C   0  0  0  0  0  0  0  0  0  0  0  0
    2.5784    2.3568    0.0000 O   0  0  0  0  0  0  0  0  0  0  0  0
   12.6337    3.9576    0.0000 N   0  0  0  0  0  0  0  0  0  0  0  0
    1.2892    2.9027    0.0000 P   0  0  0  0  0  0  0  0  0  0  0  0
    1.8351    4.1919    0.0000 O   0  0  0  0  0  0  0  0  0  0  0  0
    0.7433    1.6135    0.0000 O   0  0  0  0  0  0  0  0  0  0  0  0
    0.0000    3.4486    0.0000 O   0  0  0  0  0  0  0  0  0  0  0  0
  1  2  1  1  0  0  0
  1  3  1  0  0  0  0
  1  4  1  0  0  0  0
  2  5  1  0  0  0  0
  2  6  1  0  0  0  0
  3  7  1  0  0  0  0
  4  8  1  0  0  0  0
  4  9  1  6  0  0  0
  5 10  1  0  0  0  0
  5 11  2  0  0  0  0
  6 12  2  0  0  0  0
  7 13  1  1  0  0  0
  7  8  1  0  0  0  0
  8 14  1  6  0  0  0
 10 15  2  0  0  0  0
 12 15  1  0  0  0  0
 13 16  1  0  0  0  0
 15 17  1  0  0  0  0
 16 18  1  0  0  0  0
 18 19  1  0  0  0  0
 18 20  1  0  0  0  0
 18 21  2  0  0  0  0
M  END
>  <Mol_ID> (126)
3824

>  <Formula> (126)
C9H14N3O8P

>  <MolWeight> (126)
323.196521

>  <Cat> (126)
S5374

>  <Name> (126)
5'-Cytidylic acid

>  <Synonyms> (126)
Cytidine monophosphate, Cytidine 5'-phosphate

>  <Target> (126)
DNA/RNA Synthesis

>  <Form> (126)
free base

>  <CAS> (126)
63-37-6 

>  <URL> (126)
http://selleckchem.com/products/5-cytidylic-acid.html

$$$$
S5384 UTP, Trisodium Salt.cdx
csChFnd80/01042310162D

 32 30  0  0  0  0  0  0  0  0999 V2000
   11.8308    6.4994    0.0000 C   0  0  2  0  0  0  0  0  0  0  0  0
   11.8308    7.8994    0.0000 N   0  0  0  0  0  0  0  0  0  0  0  0
   10.6979    5.6850    0.0000 O   0  0  0  0  0  0  0  0  0  0  0  0
   12.9489    5.6779    0.0000 C   0  0  1  0  0  0  0  0  0  0  0  0
   10.6136    8.6124    0.0000 C   0  0  0  0  0  0  0  0  0  0  0  0
   13.0507    8.5964    0.0000 C   0  0  0  0  0  0  0  0  0  0  0  0
   11.1209    4.3554    0.0000 C   0  0  1  0  0  0  0  0  0  0  0  0
   12.5023    4.3434    0.0000 C   0  0  1  0  0  0  0  0  0  0  0  0
   14.2832    6.1020    0.0000 O   0  0  0  0  0  0  0  0  0  0  0  0
   10.6187   10.0204    0.0000 N   0  0  0  0  0  0  0  0  0  0  0  0
    9.4012    7.9124    0.0000 O   0  0  0  0  0  0  0  0  0  0  0  0
   13.0411   10.0111    0.0000 C   0  0  0  0  0  0  0  0  0  0  0  0
   10.2896    3.2289    0.0000 C   0  0  0  0  0  0  0  0  0  0  0  0
   13.3153    3.2036    0.0000 O   0  0  0  0  0  0  0  0  0  0  0  0
   11.8389   10.7076    0.0000 C   0  0  0  0  0  0  0  0  0  0  0  0
    8.8984    3.3856    0.0000 O   0  0  0  0  0  0  0  0  0  0  0  0
   11.8389   12.1075    0.0000 O   0  0  0  0  0  0  0  0  0  0  0  0
    8.0671    2.2592    0.0000 P   0  0  3  0  0  0  0  0  0  0  0  0
    6.9406    3.0904    0.0000 O   0  0  0  0  0  0  0  0  0  0  0  0
    9.1936    1.4279    0.0000 O   0  0  0  0  0  0  0  0  0  0  0  0
    7.2358    1.1327    0.0000 O   0  5  0  0  0  0  0  0  0  0  0  0
    5.6574    2.5305    0.0000 P   0  0  3  0  0  0  0  0  0  0  0  0
    5.0975    3.8137    0.0000 O   0  0  0  0  0  0  0  0  0  0  0  0
    6.2174    1.2474    0.0000 O   0  0  0  0  0  0  0  0  0  0  0  0
    4.3743    1.9706    0.0000 O   0  5  0  0  0  0  0  0  0  0  0  0
    3.7063    3.9704    0.0000 P   0  0  3  0  0  0  0  0  0  0  0  0
    3.8630    5.3616    0.0000 O   0  0  0  0  0  0  0  0  0  0  0  0
    3.5496    2.5792    0.0000 O   0  0  0  0  0  0  0  0  0  0  0  0
    2.3151    4.1271    0.0000 O   0  5  0  0  0  0  0  0  0  0  0  0
    7.0244    0.0000    0.0000 Na  0  3  0  0  0  0  0  0  0  0  0  0
    0.0000    4.2439    0.0000 Na  0  3  0  0  0  0  0  0  0  0  0  0
    3.8780    0.8780    0.0000 Na  0  3  0  0  0  0  0  0  0  0  0  0
  1  2  1  1  0  0  0
  1  3  1  0  0  0  0
  1  4  1  0  0  0  0
  2  5  1  0  0  0  0
  2  6  1  0  0  0  0
  3  7  1  0  0  0  0
  4  8  1  0  0  0  0
  4  9  1  6  0  0  0
  5 10  1  0  0  0  0
  5 11  2  0  0  0  0
  6 12  2  0  0  0  0
  7 13  1  1  0  0  0
  7  8  1  0  0  0  0
  8 14  1  6  0  0  0
 10 15  1  0  0  0  0
 12 15  1  0  0  0  0
 13 16  1  0  0  0  0
 15 17  2  0  0  0  0
 16 18  1  0  0  0  0
 18 19  1  0  0  0  0
 18 20  2  0  0  0  0
 18 21  1  0  0  0  0
 19 22  1  0  0  0  0
 22 23  1  0  0  0  0
 22 24  2  0  0  0  0
 22 25  1  0  0  0  0
 23 26  1  0  0  0  0
 26 27  1  0  0  0  0
 26 28  2  0  0  0  0
 26 29  1  0  0  0  0
M  END
>  <Mol_ID> (127)
3833

>  <Formula> (127)
C9H12N2Na3O15P3

>  <MolWeight> (127)
550.086573

>  <Cat> (127)
S5384

>  <Name> (127)
UTP, Trisodium Salt

>  <Synonyms> (127)
N/A

>  <Target> (127)
DNA/RNA Synthesis

>  <Form> (127)
Trisodium salt

>  <CAS> (127)
19817-92-6 

>  <URL> (127)
http://selleckchem.com/products/utp-trisodium-salt.html

$$$$
S5461 Cimicifugoside.cdx
csChFnd80/01042310162D

 51 59  0  0  0  0  0  0  0  0999 V2000
    3.6156    3.4747    0.0000 C   0  0  2  0  0  0  0  0  0  0  0  0
    2.6790    4.5153    0.0000 C   0  0  1  0  0  0  0  0  0  0  0  0
    1.4000    3.9458    0.0000 C   0  0  2  0  0  0  0  0  0  0  0  0
    1.5462    2.5536    0.0000 C   0  0  3  0  0  0  0  0  0  0  0  0
    0.0000    3.9461    0.0000 C   0  0  0  0  0  0  0  0  0  0  0  0
    0.5057    1.6168    0.0000 O   0  0  0  0  0  0  0  0  0  0  0  0
    1.5465    5.3382    0.0000 O   0  0  0  0  0  0  0  0  0  0  0  0
    2.9156    2.2623    0.0000 O   0  0  0  0  0  0  0  0  0  0  0  0
   15.0063    8.3998    0.0000 O   0  0  0  0  0  0  0  0  0  0  0  0
   16.2188    7.7000    0.0000 C   0  0  1  0  0  0  0  0  0  0  0  0
   17.4311    8.4003    0.0000 C   0  0  2  0  0  0  0  0  0  0  0  0
   17.4308    9.8004    0.0000 O   0  0  0  0  0  0  0  0  0  0  0  0
   18.6437    7.7007    0.0000 C   0  0  1  0  0  0  0  0  0  0  0  0
   19.8559    8.4009    0.0000 O   0  0  0  0  0  0  0  0  0  0  0  0
   18.6439    6.3009    0.0000 C   0  0  2  0  0  0  0  0  0  0  0  0
   19.8566    5.6011    0.0000 O   0  0  0  0  0  0  0  0  0  0  0  0
   17.4316    5.6005    0.0000 C   0  0  0  0  0  0  0  0  0  0  0  0
   16.2193    6.3001    0.0000 O   0  0  0  0  0  0  0  0  0  0  0  0
   13.7939    7.7000    0.0000 C   0  0  1  0  0  0  0  0  0  0  0  0
   13.7939    6.2999    0.0000 C   0  0  0  0  0  0  0  0  0  0  0  0
   12.5816    5.5999    0.0000 C   0  0  0  0  0  0  0  0  0  0  0  0
   12.5816    8.3998    0.0000 C   0  0  0  0  0  0  0  0  0  0  0  0
   13.4815    9.4723    0.0000 C   0  0  0  0  0  0  0  0  0  0  0  0
   11.6816    9.4723    0.0000 C   0  0  0  0  0  0  0  0  0  0  0  0
   11.3690    7.7000    0.0000 C   0  0  2  0  0  0  0  0  0  0  0  0
   10.1567    8.3998    0.0000 C   0  0  0  0  0  0  0  0  0  0  0  0
    8.9443    7.7000    0.0000 C   0  0  0  0  0  0  0  0  0  0  0  0
    8.9443    6.2999    0.0000 C   0  0  0  0  0  0  0  0  0  0  0  0
    7.7318    5.5999    0.0000 C   0  0  2  0  0  0  0  0  0  0  0  0
    7.5855    6.9923    0.0000 C   0  0  0  0  0  0  0  0  0  0  0  0
    6.4003    6.0326    0.0000 C   0  0  0  0  0  0  0  0  0  0  0  0
    5.5774    4.8999    0.0000 C   0  0  1  0  0  0  0  0  0  0  0  0
    6.4003    3.7674    0.0000 C   0  0  2  0  0  0  0  0  0  0  0  0
    5.8309    2.4884    0.0000 C   0  0  1  0  0  0  0  0  0  0  0  0
    4.4385    2.3421    0.0000 C   0  0  0  0  0  0  0  0  0  0  0  0
    6.6538    1.3558    0.0000 C   0  0  0  0  0  0  0  0  0  0  0  0
    7.7318    4.2000    0.0000 C   0  0  2  0  0  0  0  0  0  0  0  0
    7.5855    2.8076    0.0000 C   0  0  0  0  0  0  0  0  0  0  0  0
    8.9443    3.5000    0.0000 C   0  0  1  0  0  0  0  0  0  0  0  0
   10.1567    4.2000    0.0000 C   0  0  0  0  0  0  0  0  0  0  0  0
   10.1567    5.5999    0.0000 C   0  0  1  0  0  0  0  0  0  0  0  0
   11.3690    6.2999    0.0000 C   0  0  1  0  0  0  0  0  0  0  0  0
   11.3690    4.8999    0.0000 C   0  0  0  0  0  0  0  0  0  0  0  0
    4.1851    4.7536    0.0000 O   0  0  0  0  0  0  0  0  0  0  0  0
    8.9443    2.0999    0.0000 O   0  0  0  0  0  0  0  0  0  0  0  0
   10.1567    1.3999    0.0000 C   0  0  0  0  0  0  0  0  0  0  0  0
   10.1567    0.0000    0.0000 O   0  0  0  0  0  0  0  0  0  0  0  0
   11.3690    2.0999    0.0000 C   0  0  0  0  0  0  0  0  0  0  0  0
    4.8775    6.1124    0.0000 H   0  0  0  0  0  0  0  0  0  0  0  0
   11.0067    9.0523    0.0000 H   0  0  0  0  0  0  0  0  0  0  0  0
    7.1003    2.5550    0.0000 H   0  0  0  0  0  0  0  0  0  0  0  0
  1  2  1  0  0  0  0
  2  3  1  0  0  0  0
  3  4  1  0  0  0  0
  3  5  1  0  0  0  0
  4  6  1  0  0  0  0
  2  7  1  1  0  0  0
  3  7  1  1  0  0  0
  1  8  1  0  0  0  0
  4  8  1  0  0  0  0
 10  9  1  1  0  0  0
 10 11  1  0  0  0  0
 11 12  1  6  0  0  0
 11 13  1  0  0  0  0
 13 14  1  1  0  0  0
 13 15  1  0  0  0  0
 15 16  1  6  0  0  0
 15 17  1  0  0  0  0
 17 18  1  0  0  0  0
 10 18  1  0  0  0  0
 19 20  1  0  0  0  0
 20 21  1  0  0  0  0
 19 22  1  0  0  0  0
 22 23  1  0  0  0  0
 22 24  1  0  0  0  0
 22 25  1  0  0  0  0
 25 26  1  0  0  0  0
 26 27  1  0  0  0  0
 27 28  2  0  0  0  0
 28 29  1  0  0  0  0
 29 30  1  6  0  0  0
 29 31  1  0  0  0  0
 31 32  1  0  0  0  0
 32 33  1  0  0  0  0
 33 34  1  0  0  0  0
 34 35  1  0  0  0  0
  1 35  1  1  0  0  0
 34 36  1  6  0  0  0
 33 37  1  0  0  0  0
 29 37  1  0  0  0  0
 37 38  1  1  0  0  0
 37 39  1  0  0  0  0
 39 40  1  0  0  0  0
 40 41  1  0  0  0  0
 28 41  1  0  0  0  0
 41 42  1  0  0  0  0
 42 21  1  0  0  0  0
 25 42  1  0  0  0  0
 42 43  1  1  0  0  0
 41 43  1  1  0  0  0
 32 44  1  0  0  0  0
  1 44  1  0  0  0  0
 46 47  2  0  0  0  0
 46 48  1  0  0  0  0
 45 46  1  0  0  0  0
 39 45  1  1  0  0  0
 19  9  1  1  0  0  0
 32 49  1  6  0  0  0
 25 50  1  6  0  0  0
 33 51  1  6  0  0  0
M  END
>  <Mol_ID> (128)
3870

>  <Formula> (128)
C37H54O11

>  <MolWeight> (128)
674.81806

>  <Cat> (128)
S5461

>  <Name> (128)
Cimicifugoside

>  <Synonyms> (128)
N/A

>  <Target> (128)
Others

>  <Form> (128)
free base

>  <CAS> (128)
66176-93-0

>  <URL> (128)
http://selleckchem.com/products/cimicifugoside.html

$$$$
S5582 Cytarabine hydrochloride.cdx
csChFnd80/01042310162D

 18 18  0  0  0  0  0  0  0  0999 V2000
    5.6898    3.6556    0.0000 N   0  0  0  0  0  0  0  0  0  0  0  0
    5.6898    5.0557    0.0000 C   0  0  0  0  0  0  0  0  0  0  0  0
    4.4815    5.7533    0.0000 O   0  0  0  0  0  0  0  0  0  0  0  0
    6.9023    5.7558    0.0000 N   0  0  0  0  0  0  0  0  0  0  0  0
    8.1151    5.0556    0.0000 C   0  0  0  0  0  0  0  0  0  0  0  0
    9.3232    5.7531    0.0000 N   0  0  0  0  0  0  0  0  0  0  0  0
    8.1151    3.6555    0.0000 C   0  0  0  0  0  0  0  0  0  0  0  0
    6.9024    2.9553    0.0000 C   0  0  0  0  0  0  0  0  0  0  0  0
    4.4815    2.9580    0.0000 C   0  0  1  0  0  0  0  0  0  0  0  0
    4.3350    1.5656    0.0000 C   0  0  1  0  0  0  0  0  0  0  0  0
    5.3718    0.6320    0.0000 O   0  0  0  0  0  0  0  0  0  0  0  0
    2.9656    1.2746    0.0000 C   0  0  2  0  0  0  0  0  0  0  0  0
    2.3979    0.0000    0.0000 O   0  0  0  0  0  0  0  0  0  0  0  0
    2.2656    2.4872    0.0000 C   0  0  2  0  0  0  0  0  0  0  0  0
    3.2025    3.5274    0.0000 O   0  0  0  0  0  0  0  0  0  0  0  0
    0.8781    2.6333    0.0000 C   0  0  0  0  0  0  0  0  0  0  0  0
    0.0000    1.5490    0.0000 O   0  0  0  0  0  0  0  0  0  0  0  0
    8.0524    1.2572    0.0000 Cl  0  0  0  0  0  0  0  0  0  0  0  0
  1  2  1  0  0  0  0
  2  3  2  0  0  0  0
  2  4  1  0  0  0  0
  4  5  2  0  0  0  0
  5  6  1  0  0  0  0
  5  7  1  0  0  0  0
  7  8  2  0  0  0  0
  1  8  1  0  0  0  0
  9 10  1  0  0  0  0
 10 11  1  1  0  0  0
 10 12  1  0  0  0  0
 12 13  1  6  0  0  0
 12 14  1  0  0  0  0
 14 15  1  0  0  0  0
 14 16  1  1  0  0  0
 16 17  1  0  0  0  0
  9 15  1  0  0  0  0
  9  1  1  1  0  0  0
M  END
>  <Mol_ID> (129)
3930

>  <Formula> (129)
C9H14ClN3O5

>  <MolWeight> (129)
279.67756

>  <Cat> (129)
S5582

>  <Name> (129)
Cytarabine hydrochloride

>  <Synonyms> (129)
N/A

>  <Target> (129)
DNA/RNA Synthesis

>  <Form> (129)
hydrochloride 

>  <CAS> (129)
69-74-9

>  <URL> (129)
http://selleckchem.com/products/cytarabine-hydrochloride.html

$$$$
S4984 2,2'-Cyclouridine.cdx
csChFnd80/01042310162D

 16 18  0  0  0  0  0  0  0  0999 V2000
    4.2023    2.9652    0.0000 C   0  0  2  0  0  0  0  0  0  0  0  0
    4.0515    1.5927    0.0000 C   0  0  1  0  0  0  0  0  0  0  0  0
    5.5446    3.2649    0.0000 N   0  0  0  0  0  0  0  0  0  0  0  0
    2.9038    3.5255    0.0000 O   0  0  0  0  0  0  0  0  0  0  0  0
    5.3195    1.0242    0.0000 O   0  0  0  0  0  0  0  0  0  0  0  0
    2.6787    1.2849    0.0000 C   0  0  1  0  0  0  0  0  0  0  0  0
    6.2507    2.0696    0.0000 C   0  0  0  0  0  0  0  0  0  0  0  0
    6.2389    4.4791    0.0000 C   0  0  0  0  0  0  0  0  0  0  0  0
    1.9726    2.4802    0.0000 C   0  0  1  0  0  0  0  0  0  0  0  0
    2.1228    0.0000    0.0000 O   0  0  0  0  0  0  0  0  0  0  0  0
    7.6607    2.0780    0.0000 N   0  0  0  0  0  0  0  0  0  0  0  0
    7.6489    4.4877    0.0000 C   0  0  0  0  0  0  0  0  0  0  0  0
    0.5792    2.6159    0.0000 C   0  0  0  0  0  0  0  0  0  0  0  0
    8.3500    3.2716    0.0000 C   0  0  0  0  0  0  0  0  0  0  0  0
    0.0000    3.8905    0.0000 O   0  0  0  0  0  0  0  0  0  0  0  0
    9.7500    3.2716    0.0000 O   0  0  0  0  0  0  0  0  0  0  0  0
  1  2  1  0  0  0  0
  1  3  1  1  0  0  0
  1  4  1  0  0  0  0
  2  5  1  1  0  0  0
  2  6  1  0  0  0  0
  3  7  1  0  0  0  0
  3  8  1  0  0  0  0
  4  9  1  0  0  0  0
  5  7  1  0  0  0  0
  6 10  1  6  0  0  0
  6  9  1  0  0  0  0
  7 11  2  0  0  0  0
  8 12  2  0  0  0  0
  9 13  1  1  0  0  0
 11 14  1  0  0  0  0
 12 14  1  0  0  0  0
 13 15  1  0  0  0  0
 14 16  2  0  0  0  0
M  END
>  <Mol_ID> (130)
3960

>  <Formula> (130)
C9H10N2O5

>  <MolWeight> (130)
226.1861

>  <Cat> (130)
S4984

>  <Name> (130)
2,2'-Cyclouridine

>  <Target> (130)
Others

>  <Form> (130)
free base

>  <CAS> (130)
3736-77-4

>  <URL> (130)
http://selleckchem.com/products/2-2-cyclouridine.html

$$$$
S5259 ¦Â-Nicotinamide Mononucleotide.cdx
csChFnd80/01042310162D

 22 23  0  0  0  0  0  0  0  0999 V2000
    4.8995    5.3879    0.0000 C   0  0  2  0  0  0  0  0  0  0  0  0
    4.8995    6.7878    0.0000 N   0  3  0  0  0  0  0  0  0  0  0  0
    3.7437    4.5713    0.0000 O   0  0  0  0  0  0  0  0  0  0  0  0
    6.0049    4.5713    0.0000 C   0  0  1  0  0  0  0  0  0  0  0  0
    6.1198    7.4872    0.0000 C   0  0  0  0  0  0  0  0  0  0  0  0
    3.7107    7.4934    0.0000 C   0  0  0  0  0  0  0  0  0  0  0  0
    4.1715    3.2492    0.0000 C   0  0  1  0  0  0  0  0  0  0  0  0
    5.5883    3.2492    0.0000 C   0  0  1  0  0  0  0  0  0  0  0  0
    7.3357    5.0062    0.0000 O   0  0  0  0  0  0  0  0  0  0  0  0
    6.1180    8.9012    0.0000 C   0  0  0  0  0  0  0  0  0  0  0  0
    3.7107    8.9045    0.0000 C   0  0  0  0  0  0  0  0  0  0  0  0
    3.3480    2.1171    0.0000 C   0  0  0  0  0  0  0  0  0  0  0  0
    6.4163    2.1202    0.0000 O   0  0  0  0  0  0  0  0  0  0  0  0
    4.9052    9.6045    0.0000 C   0  0  0  0  0  0  0  0  0  0  0  0
    7.3305    9.6012    0.0000 C   0  0  0  0  0  0  0  0  0  0  0  0
    1.9557    2.2642    0.0000 O   0  0  0  0  0  0  0  0  0  0  0  0
    8.5458    8.8995    0.0000 N   0  0  0  0  0  0  0  0  0  0  0  0
    7.3305   10.9979    0.0000 O   0  0  0  0  0  0  0  0  0  0  0  0
    1.1321    1.1321    0.0000 P   0  0  3  0  0  0  0  0  0  0  0  0
    0.3085    0.0000    0.0000 O   0  0  0  0  0  0  0  0  0  0  0  0
    2.2642    0.3085    0.0000 O   0  0  0  0  0  0  0  0  0  0  0  0
    0.0000    1.9557    0.0000 O   0  5  0  0  0  0  0  0  0  0  0  0
  1  2  1  1  0  0  0
  1  3  1  0  0  0  0
  1  4  1  0  0  0  0
  2  5  2  0  0  0  0
  2  6  1  0  0  0  0
  3  7  1  0  0  0  0
  4  8  1  0  0  0  0
  4  9  1  6  0  0  0
  5 10  1  0  0  0  0
  6 11  2  0  0  0  0
  7 12  1  1  0  0  0
  7  8  1  0  0  0  0
  8 13  1  6  0  0  0
 10 14  2  0  0  0  0
 10 15  1  0  0  0  0
 11 14  1  0  0  0  0
 12 16  1  0  0  0  0
 15 17  1  0  0  0  0
 15 18  2  0  0  0  0
 16 19  1  0  0  0  0
 19 20  1  0  0  0  0
 19 21  2  0  0  0  0
 19 22  1  0  0  0  0
M  END
>  <Mol_ID> (131)
3967

>  <Formula> (131)
C11H15N2O8P

>  <MolWeight> (131)
334.219161

>  <Cat> (131)
S5259

>  <Name> (131)
¦Â-Nicotinamide Mononucleotide

>  <Form> (131)
inner salt

>  <CAS> (131)
1094-61-7

$$$$
S5358 Regadenoson.cdx
csChFnd80/01042310162D

 28 31  0  0  0  0  0  0  0  0999 V2000
    9.0566    4.9287    0.0000 N   0  0  0  0  0  0  0  0  0  0  0  0
    7.7160    5.3833    0.0000 C   0  0  0  0  0  0  0  0  0  0  0  0
    9.4714    3.5916    0.0000 C   0  0  1  0  0  0  0  0  0  0  0  0
    6.4912    4.6762    0.0000 N   0  0  0  0  0  0  0  0  0  0  0  0
    5.2661    5.3835    0.0000 C   0  0  0  0  0  0  0  0  0  0  0  0
    7.7160    6.7946    0.0000 C   0  0  0  0  0  0  0  0  0  0  0  0
    5.2661    6.8078    0.0000 N   0  0  0  0  0  0  0  0  0  0  0  0
    9.0753    7.1886    0.0000 N   0  0  0  0  0  0  0  0  0  0  0  0
    4.0537    4.6835    0.0000 N   0  0  0  0  0  0  0  0  0  0  0  0
    8.6529    2.4746    0.0000 C   0  0  1  0  0  0  0  0  0  0  0  0
    9.8887    6.0408    0.0000 C   0  0  0  0  0  0  0  0  0  0  0  0
   10.8026    3.1234    0.0000 O   0  0  0  0  0  0  0  0  0  0  0  0
    2.5497    2.9513    0.0000 C   0  0  0  0  0  0  0  0  0  0  0  0
    6.5147    7.4922    0.0000 C   0  0  0  0  0  0  0  0  0  0  0  0
    2.8284    5.2503    0.0000 N   0  0  0  0  0  0  0  0  0  0  0  0
    3.9258    3.2717    0.0000 C   0  0  0  0  0  0  0  0  0  0  0  0
    9.4628    1.3196    0.0000 C   0  0  1  0  0  0  0  0  0  0  0  0
   10.8026    1.7030    0.0000 C   0  0  1  0  0  0  0  0  0  0  0  0
    1.9715    1.6763    0.0000 C   0  0  0  0  0  0  0  0  0  0  0  0
    1.8798    4.2057    0.0000 C   0  0  0  0  0  0  0  0  0  0  0  0
    2.7866    0.5381    0.0000 O   0  0  0  0  0  0  0  0  0  0  0  0
    6.5147    8.8921    0.0000 N   0  0  0  0  0  0  0  0  0  0  0  0
    7.2530    2.4746    0.0000 O   0  0  0  0  0  0  0  0  0  0  0  0
    0.5782    1.5395    0.0000 N   0  0  0  0  0  0  0  0  0  0  0  0
    8.9952    0.0000    0.0000 O   0  0  0  0  0  0  0  0  0  0  0  0
   11.9193    0.8587    0.0000 C   0  0  0  0  0  0  0  0  0  0  0  0
   13.2089    1.4036    0.0000 O   0  0  0  0  0  0  0  0  0  0  0  0
    0.0000    0.2645    0.0000 C   0  0  0  0  0  0  0  0  0  0  0  0
  2  1  1  0  0  0  0
  3  1  1  6  0  0  0
 11  1  1  0  0  0  0
  4  2  1  0  0  0  0
  6  2  2  0  0  0  0
 10  3  1  0  0  0  0
 12  3  1  0  0  0  0
  5  4  2  0  0  0  0
  7  5  1  0  0  0  0
  9  5  1  0  0  0  0
 14  6  1  0  0  0  0
  8  6  1  0  0  0  0
  7 14  2  0  0  0  0
  8 11  2  0  0  0  0
 15  9  1  0  0  0  0
 16  9  1  0  0  0  0
 17 10  1  0  0  0  0
 10 23  1  1  0  0  0
 18 12  1  0  0  0  0
 13 16  2  0  0  0  0
 19 13  1  0  0  0  0
 20 13  1  0  0  0  0
 22 14  1  0  0  0  0
 20 15  2  0  0  0  0
 17 25  1  1  0  0  0
 18 17  1  0  0  0  0
 18 26  1  6  0  0  0
 21 19  2  0  0  0  0
 24 19  1  0  0  0  0
 28 24  1  0  0  0  0
 27 26  1  0  0  0  0
M  END
>  <Mol_ID> (132)
3976

>  <Formula> (132)
C15H18N8O5

>  <MolWeight> (132)
390.35402

>  <Cat> (132)
S5358

>  <Name> (132)
Regadenoson

>  <Synonyms> (132)
CVT-3146, Lexiscan

>  <Target> (132)
Adenosine Receptor

>  <Form> (132)
free base

>  <CAS> (132)
313348-27-5  

>  <URL> (132)
http://selleckchem.com/products/regadenoson.html

$$$$
S5065 Ganciclovir sodium.cdx
csChFnd80/01042310162D

 19 19  0  0  0  0  0  0  0  0999 V2000
    3.5900    5.7768    0.0000 C   0  0  0  0  0  0  0  0  0  0  0  0
    3.5900    7.0967    0.0000 C   0  0  0  0  0  0  0  0  0  0  0  0
    4.9339    5.3021    0.0000 N   0  0  0  0  0  0  0  0  0  0  0  0
    2.4096    5.0430    0.0000 N   0  0  0  0  0  0  0  0  0  0  0  0
    4.9339    7.5153    0.0000 N   0  0  0  0  0  0  0  0  0  0  0  0
    2.4111    7.7865    0.0000 C   0  0  0  0  0  0  0  0  0  0  0  0
    5.6876    6.4627    0.0000 C   0  0  0  0  0  0  0  0  0  0  0  0
    5.3844    3.9766    0.0000 C   0  0  0  0  0  0  0  0  0  0  0  0
    1.2124    5.7853    0.0000 C   0  0  0  0  0  0  0  0  0  0  0  0
    1.2173    7.0967    0.0000 N   0  0  0  0  0  0  0  0  0  0  0  0
    2.4111    9.1865    0.0000 O   0  5  0  0  0  0  0  0  0  0  0  0
    6.7576    3.7040    0.0000 O   0  0  0  0  0  0  0  0  0  0  0  0
    0.0000    5.0853    0.0000 N   0  0  0  0  0  0  0  0  0  0  0  0
    7.2081    2.3785    0.0000 C   0  0  0  0  0  0  0  0  0  0  0  0
    6.2854    1.3255    0.0000 C   0  0  0  0  0  0  0  0  0  0  0  0
    8.5813    2.1058    0.0000 C   0  0  0  0  0  0  0  0  0  0  0  0
    6.7359    0.0000    0.0000 O   0  0  0  0  0  0  0  0  0  0  0  0
    9.0318    0.7803    0.0000 O   0  0  0  0  0  0  0  0  0  0  0  0
    3.4929    9.1351    0.0000 Na  0  3  0  0  0  0  0  0  0  0  0  0
  1  2  2  0  0  0  0
  1  3  1  0  0  0  0
  1  4  1  0  0  0  0
  2  5  1  0  0  0  0
  2  6  1  0  0  0  0
  3  7  1  0  0  0  0
  3  8  1  0  0  0  0
  4  9  2  0  0  0  0
  5  7  2  0  0  0  0
  6 10  2  0  0  0  0
  6 11  1  0  0  0  0
  8 12  1  0  0  0  0
  9 13  1  0  0  0  0
  9 10  1  0  0  0  0
 12 14  1  0  0  0  0
 14 15  1  0  0  0  0
 14 16  1  0  0  0  0
 15 17  1  0  0  0  0
 16 18  1  0  0  0  0
M  END
>  <Mol_ID> (133)
4021

>  <Formula> (133)
C9H12N5NaO4

>  <MolWeight> (133)
277.21245

>  <Cat> (133)
S5065

>  <Name> (133)
Ganciclovir sodium

>  <Synonyms> (133)
N/A

>  <Target> (133)
others

>  <CAS> (133)
107910-75-8

>  <URL> (133)
http://selleckchem.com/products/.html

$$$$
S9345 Disodium 5'-Inosinate.cdx
csChFnd80/01042310162D

 25 25  0  0  0  0  0  0  0  0999 V2000
    9.1359    2.8967    0.0000 N   0  0  0  0  0  0  0  0  0  0  0  0
    9.5686    4.2282    0.0000 C   0  0  0  0  0  0  0  0  0  0  0  0
    7.8044    2.4641    0.0000 C   0  0  2  0  0  0  0  0  0  0  0  0
   10.2686    2.0738    0.0000 C   0  0  0  0  0  0  0  0  0  0  0  0
   10.9686    4.2282    0.0000 C   0  0  0  0  0  0  0  0  0  0  0  0
    8.8686    5.4406    0.0000 N   0  0  0  0  0  0  0  0  0  0  0  0
    6.6718    3.2870    0.0000 O   0  0  0  0  0  0  0  0  0  0  0  0
    7.3718    1.1326    0.0000 C   0  0  1  0  0  0  0  0  0  0  0  0
   11.4012    2.8967    0.0000 N   0  0  0  0  0  0  0  0  0  0  0  0
   11.6686    5.4406    0.0000 C   0  0  0  0  0  0  0  0  0  0  0  0
    9.5686    6.6531    0.0000 C   0  0  0  0  0  0  0  0  0  0  0  0
    5.5392    2.4641    0.0000 C   0  0  1  0  0  0  0  0  0  0  0  0
    5.9718    1.1326    0.0000 C   0  0  1  0  0  0  0  0  0  0  0  0
    8.1947    0.0000    0.0000 O   0  0  0  0  0  0  0  0  0  0  0  0
   10.9686    6.6531    0.0000 N   0  0  0  0  0  0  0  0  0  0  0  0
   13.0686    5.4406    0.0000 O   0  0  0  0  0  0  0  0  0  0  0  0
    4.2077    2.8967    0.0000 C   0  0  0  0  0  0  0  0  0  0  0  0
    5.1489    0.0000    0.0000 O   0  0  0  0  0  0  0  0  0  0  0  0
    3.9166    4.2661    0.0000 O   0  0  0  0  0  0  0  0  0  0  0  0
    2.5852    4.6988    0.0000 P   0  0  0  0  0  0  0  0  0  0  0  0
    1.2537    5.1314    0.0000 O   0  0  0  0  0  0  0  0  0  0  0  0
    2.1525    3.3673    0.0000 O   0  5  0  0  0  0  0  0  0  0  0  0
    3.0178    6.0302    0.0000 O   0  5  0  0  0  0  0  0  0  0  0  0
    4.1404    6.0706    0.0000 Na  0  3  0  0  0  0  0  0  0  0  0  0
    0.0000    3.3826    0.0000 Na  0  3  0  0  0  0  0  0  0  0  0  0
  1  2  1  0  0  0  0
  3  1  1  1  0  0  0
  1  4  1  0  0  0  0
  2  5  2  0  0  0  0
  2  6  1  0  0  0  0
  3  7  1  0  0  0  0
  3  8  1  0  0  0  0
  4  9  2  0  0  0  0
  5 10  1  0  0  0  0
  5  9  1  0  0  0  0
  6 11  2  0  0  0  0
  7 12  1  0  0  0  0
  8 13  1  0  0  0  0
  8 14  1  6  0  0  0
 10 15  1  0  0  0  0
 10 16  2  0  0  0  0
 11 15  1  0  0  0  0
 12 17  1  1  0  0  0
 12 13  1  0  0  0  0
 13 18  1  6  0  0  0
 17 19  1  0  0  0  0
 19 20  1  0  0  0  0
 20 21  2  0  0  0  0
 20 22  1  0  0  0  0
 20 23  1  0  0  0  0
M  END
>  <Mol_ID> (134)
4046

>  <Formula> (134)
C10H11N4Na2O8P

>  <MolWeight> (134)
392.169641

>  <Cat> (134)
S9345

>  <Name> (134)
Disodium 5'-Inosinate

>  <Form> (134)
free base

>  <CAS> (134)
4691-65-0

$$$$
S9365 Disodium uridine-5'-monophosphate.cdx
csChFnd80/01042310162D

 23 22  0  0  0  0  0  0  0  0999 V2000
    7.7058    2.5118    0.0000 C   0  0  2  0  0  0  0  0  0  0  0  0
    9.0242    2.9829    0.0000 N   0  0  0  0  0  0  0  0  0  0  0  0
    6.6067    3.2789    0.0000 O   0  0  0  0  0  0  0  0  0  0  0  0
    7.3246    1.1608    0.0000 C   0  0  1  0  0  0  0  0  0  0  0  0
   10.1115    2.0834    0.0000 C   0  0  0  0  0  0  0  0  0  0  0  0
    9.2897    4.3404    0.0000 C   0  0  0  0  0  0  0  0  0  0  0  0
    5.4830    2.4830    0.0000 C   0  0  1  0  0  0  0  0  0  0  0  0
    5.9308    1.1420    0.0000 C   0  0  1  0  0  0  0  0  0  0  0  0
    8.1770    0.0502    0.0000 O   0  0  0  0  0  0  0  0  0  0  0  0
   11.4278    2.5527    0.0000 N   0  0  0  0  0  0  0  0  0  0  0  0
    9.8686    0.7046    0.0000 O   0  0  0  0  0  0  0  0  0  0  0  0
   10.5968    4.8403    0.0000 C   0  0  0  0  0  0  0  0  0  0  0  0
    4.1498    2.9101    0.0000 C   0  0  0  0  0  0  0  0  0  0  0  0
    5.1209    0.0000    0.0000 O   0  0  0  0  0  0  0  0  0  0  0  0
   11.6672    3.9380    0.0000 C   0  0  0  0  0  0  0  0  0  0  0  0
    3.8525    4.2810    0.0000 O   0  0  0  0  0  0  0  0  0  0  0  0
   12.9825    4.4175    0.0000 O   0  0  0  0  0  0  0  0  0  0  0  0
    2.5259    4.7060    0.0000 P   0  0  0  0  0  0  0  0  0  0  0  0
    1.1926    5.1331    0.0000 O   0  0  0  0  0  0  0  0  0  0  0  0
    2.1021    3.3829    0.0000 O   0  5  0  0  0  0  0  0  0  0  0  0
    2.9563    6.0494    0.0000 O   0  5  0  0  0  0  0  0  0  0  0  0
    0.0000    3.3844    0.0000 Na  0  3  0  0  0  0  0  0  0  0  0  0
    4.0804    6.0619    0.0000 Na  0  3  0  0  0  0  0  0  0  0  0  0
  1  2  1  1  0  0  0
  1  3  1  0  0  0  0
  1  4  1  0  0  0  0
  2  5  1  0  0  0  0
  2  6  1  0  0  0  0
  3  7  1  0  0  0  0
  4  8  1  0  0  0  0
  4  9  1  6  0  0  0
  5 10  1  0  0  0  0
  5 11  2  0  0  0  0
  6 12  2  0  0  0  0
  7 13  1  1  0  0  0
  7  8  1  0  0  0  0
  8 14  1  6  0  0  0
 10 15  1  0  0  0  0
 12 15  1  0  0  0  0
 13 16  1  0  0  0  0
 15 17  2  0  0  0  0
 16 18  1  0  0  0  0
 18 19  2  0  0  0  0
 18 20  1  0  0  0  0
 18 21  1  0  0  0  0
M  END
>  <Mol_ID> (135)
4055

>  <Formula> (135)
C9H11N2Na2O9P

>  <MolWeight> (135)
368.144941

>  <Cat> (135)
S9365

>  <Name> (135)
Disodium uridine-5'-monophosphate

>  <Form> (135)
free base

>  <CAS> (135)
3387-36-8

$$$$
S9366 5'-Adenylic acid.cdx
csChFnd80/01042310162D

 23 25  0  0  0  0  0  0  0  0999 V2000
    8.8569    2.8953    0.0000 C   0  0  0  0  0  0  0  0  0  0  0  0
    7.5248    2.4646    0.0000 C   0  0  2  0  0  0  0  0  0  0  0  0
    7.0904    1.1338    0.0000 C   0  0  1  0  0  0  0  0  0  0  0  0
    7.9118    0.0000    0.0000 O   0  0  0  0  0  0  0  0  0  0  0  0
    5.6905    1.1359    0.0000 C   0  0  1  0  0  0  0  0  0  0  0  0
    4.8660    0.0044    0.0000 O   0  0  0  0  0  0  0  0  0  0  0  0
    5.2597    2.4679    0.0000 C   0  0  1  0  0  0  0  0  0  0  0  0
    6.3936    3.2892    0.0000 O   0  0  0  0  0  0  0  0  0  0  0  0
    3.9288    2.9024    0.0000 N   0  0  0  0  0  0  0  0  0  0  0  0
    2.7951    2.0811    0.0000 C   0  0  0  0  0  0  0  0  0  0  0  0
    1.6636    2.9057    0.0000 N   0  0  0  0  0  0  0  0  0  0  0  0
    2.0982    4.2365    0.0000 C   0  0  0  0  0  0  0  0  0  0  0  0
    1.4000    5.4500    0.0000 C   0  0  0  0  0  0  0  0  0  0  0  0
    0.0000    5.4521    0.0000 N   0  0  0  0  0  0  0  0  0  0  0  0
    2.1018    6.6614    0.0000 N   0  0  0  0  0  0  0  0  0  0  0  0
    3.5018    6.6593    0.0000 C   0  0  0  0  0  0  0  0  0  0  0  0
    4.1999    5.4459    0.0000 N   0  0  0  0  0  0  0  0  0  0  0  0
    3.4981    4.2345    0.0000 C   0  0  0  0  0  0  0  0  0  0  0  0
   11.2488    2.3174    0.0000 P   0  0  0  0  0  0  0  0  0  0  0  0
   10.8885    3.6702    0.0000 O   0  0  0  0  0  0  0  0  0  0  0  0
    9.8960    1.9570    0.0000 O   0  0  0  0  0  0  0  0  0  0  0  0
   12.6017    2.6777    0.0000 O   0  0  0  0  0  0  0  0  0  0  0  0
   11.6092    0.9646    0.0000 O   0  0  0  0  0  0  0  0  0  0  0  0
  2  1  1  6  0  0  0
  2  3  1  0  0  0  0
  3  4  1  1  0  0  0
  3  5  1  0  0  0  0
  5  6  1  1  0  0  0
  5  7  1  0  0  0  0
  7  8  1  0  0  0  0
  2  8  1  0  0  0  0
  7  9  1  6  0  0  0
  9 10  1  0  0  0  0
 10 11  2  0  0  0  0
 11 12  1  0  0  0  0
 12 13  1  0  0  0  0
 13 14  1  0  0  0  0
 13 15  2  0  0  0  0
 15 16  1  0  0  0  0
 16 17  2  0  0  0  0
 17 18  1  0  0  0  0
 12 18  2  0  0  0  0
  9 18  1  0  0  0  0
 19 20  2  0  0  0  0
 19 21  1  0  0  0  0
 19 22  1  0  0  0  0
 19 23  1  0  0  0  0
  1 21  1  0  0  0  0
M  END
>  <Mol_ID> (136)
4056

>  <Formula> (136)
C10H14N5O7P

>  <MolWeight> (136)
347.221221

>  <Cat> (136)
S9366

>  <Name> (136)
5'-Adenylic acid

>  <Form> (136)
free base

>  <CAS> (136)
61-19-8

$$$$

csChFnd80/01042310162D

 34 33  0  0  0  0  0  0  0  0999 V2000
   13.3160    6.0797    0.0000 N   0  0  0  0  0  0  0  0  0  0  0  0
   14.4577    5.2694    0.0000 C   0  0  0  0  0  0  0  0  0  0  0  0
   11.9894    5.6323    0.0000 C   0  0  2  0  0  0  0  0  0  0  0  0
   13.7338    7.4159    0.0000 C   0  0  0  0  0  0  0  0  0  0  0  0
   15.5811    6.1049    0.0000 C   0  0  0  0  0  0  0  0  0  0  0  0
   14.6195    3.8788    0.0000 N   0  0  0  0  0  0  0  0  0  0  0  0
   10.8477    6.4425    0.0000 O   0  0  0  0  0  0  0  0  0  0  0  0
   11.5716    4.2961    0.0000 C   0  0  1  0  0  0  0  0  0  0  0  0
   15.1337    7.4314    0.0000 N   0  0  0  0  0  0  0  0  0  0  0  0
   16.8663    5.5497    0.0000 C   0  0  0  0  0  0  0  0  0  0  0  0
   15.9048    3.3236    0.0000 C   0  0  0  0  0  0  0  0  0  0  0  0
    9.7243    5.6071    0.0000 C   0  0  1  0  0  0  0  0  0  0  0  0
   10.1717    4.2805    0.0000 C   0  0  1  0  0  0  0  0  0  0  0  0
   12.4071    3.1727    0.0000 O   0  0  0  0  0  0  0  0  0  0  0  0
   17.0282    4.1591    0.0000 N   0  0  0  0  0  0  0  0  0  0  0  0
   17.9898    6.3851    0.0000 N   0  0  0  0  0  0  0  0  0  0  0  0
    8.3881    6.0249    0.0000 C   0  0  0  0  0  0  0  0  0  0  0  0
    7.3100    5.1318    0.0000 O   0  0  0  0  0  0  0  0  0  0  0  0
    5.9975    5.6189    0.0000 P   0  0  3  0  0  0  0  0  0  0  0  0
    5.5103    4.3064    0.0000 O   0  0  0  0  0  0  0  0  0  0  0  0
    4.6850    6.1061    0.0000 O   0  0  0  0  0  0  0  0  0  0  0  0
    6.4846    6.9314    0.0000 O   0  0  0  0  0  0  0  0  0  0  0  0
    4.1301    4.0721    0.0000 P   0  0  3  0  0  0  0  0  0  0  0  0
    4.3644    2.6918    0.0000 O   0  0  0  0  0  0  0  0  0  0  0  0
    3.8957    5.4523    0.0000 O   0  0  0  0  0  0  0  0  0  0  0  0
    2.7498    3.8377    0.0000 O   0  5  0  0  0  0  0  0  0  0  0  0
    3.2863    1.7987    0.0000 P   0  0  3  0  0  0  0  0  0  0  0  0
    4.1794    0.7206    0.0000 O   0  0  0  0  0  0  0  0  0  0  0  0
    2.3932    2.8769    0.0000 O   0  0  0  0  0  0  0  0  0  0  0  0
    2.2082    0.9056    0.0000 O   0  5  0  0  0  0  0  0  0  0  0  0
    0.0000    0.9512    0.0000 Na  0  3  0  0  0  0  0  0  0  0  0  0
    0.4390    3.9512    0.0000 Na  0  3  0  0  0  0  0  0  0  0  0  0
    9.3615    3.1388    0.0000 O   0  0  0  0  0  0  0  0  0  0  0  0
    8.1951    0.0000    0.0000 R   0  0  0  0  0  0  0  0  0  0  0  0
  1  2  1  0  0  0  0
  3  1  1  1  0  0  0
  1  4  1  0  0  0  0
  2  5  2  0  0  0  0
  2  6  1  0  0  0  0
  3  7  1  0  0  0  0
  3  8  1  0  0  0  0
  4  9  2  0  0  0  0
  5 10  1  0  0  0  0
  5  9  1  0  0  0  0
  6 11  2  0  0  0  0
  7 12  1  0  0  0  0
  8 13  1  0  0  0  0
  8 14  1  6  0  0  0
 10 15  2  0  0  0  0
 10 16  1  0  0  0  0
 11 15  1  0  0  0  0
 12 17  1  1  0  0  0
 12 13  1  0  0  0  0
 17 18  1  0  0  0  0
 18 19  1  0  0  0  0
 19 20  1  0  0  0  0
 19 21  1  0  0  0  0
 19 22  2  0  0  0  0
 20 23  1  0  0  0  0
 23 24  1  0  0  0  0
 23 25  2  0  0  0  0
 23 26  1  0  0  0  0
 24 27  1  0  0  0  0
 27 28  1  0  0  0  0
 27 29  2  0  0  0  0
 27 30  1  0  0  0  0
 13 33  1  6  0  0  0
A   34
xH2O
M  END
>  <Mol_ID> (137)
4057

>  <Formula> (137)
C10H14N5Na2O13P3R

>  <MolWeight> (137)
551.144683

>  <Cat> (137)
S9367

>  <Name> (137)
Adenosine disodium triphosphate

>  <CAS> (137)
34369-07-8

$$$$
S9368 ADP.cdx
csChFnd80/01042310162D

 27 29  0  0  0  0  0  0  0  0999 V2000
    8.0319    2.8649    0.0000 N   0  0  0  0  0  0  0  0  0  0  0  0
    9.1371    2.0061    0.0000 C   0  0  0  0  0  0  0  0  0  0  0  0
    6.6899    2.4662    0.0000 C   0  0  2  0  0  0  0  0  0  0  0  0
    8.4842    4.1735    0.0000 C   0  0  0  0  0  0  0  0  0  0  0  0
   10.2860    2.8171    0.0000 C   0  0  0  0  0  0  0  0  0  0  0  0
    9.2414    0.6074    0.0000 N   0  0  0  0  0  0  0  0  0  0  0  0
    5.5773    3.3387    0.0000 O   0  0  0  0  0  0  0  0  0  0  0  0
    6.2367    1.1427    0.0000 C   0  0  1  0  0  0  0  0  0  0  0  0
    9.8779    4.1580    0.0000 N   0  0  0  0  0  0  0  0  0  0  0  0
   11.5466    2.2274    0.0000 C   0  0  0  0  0  0  0  0  0  0  0  0
   10.5365    0.0298    0.0000 C   0  0  0  0  0  0  0  0  0  0  0  0
    4.4465    2.5178    0.0000 C   0  0  1  0  0  0  0  0  0  0  0  0
    4.8639    1.1573    0.0000 C   0  0  1  0  0  0  0  0  0  0  0  0
    7.0455    0.0000    0.0000 O   0  0  0  0  0  0  0  0  0  0  0  0
   11.6813    0.8196    0.0000 N   0  0  0  0  0  0  0  0  0  0  0  0
   12.6893    3.0362    0.0000 N   0  0  0  0  0  0  0  0  0  0  0  0
    3.1212    2.9691    0.0000 C   0  0  0  0  0  0  0  0  0  0  0  0
    3.9695    0.0803    0.0000 O   0  0  0  0  0  0  0  0  0  0  0  0
    2.8495    4.3425    0.0000 O   0  0  0  0  0  0  0  0  0  0  0  0
    1.5242    4.7938    0.0000 P   0  0  3  0  0  0  0  0  0  0  0  0
    1.9755    6.1191    0.0000 O   0  0  0  0  0  0  0  0  0  0  0  0
    1.0729    3.4685    0.0000 O   0  0  0  0  0  0  0  0  0  0  0  0
    0.1989    5.2451    0.0000 O   0  0  0  0  0  0  0  0  0  0  0  0
    1.0535    7.1725    0.0000 P   0  0  0  0  0  0  0  0  0  0  0  0
    0.0000    6.2505    0.0000 O   0  0  0  0  0  0  0  0  0  0  0  0
    2.1070    8.0946    0.0000 O   0  0  0  0  0  0  0  0  0  0  0  0
    0.1314    8.2260    0.0000 O   0  0  0  0  0  0  0  0  0  0  0  0
  1  2  1  0  0  0  0
  3  1  1  1  0  0  0
  1  4  1  0  0  0  0
  2  5  2  0  0  0  0
  2  6  1  0  0  0  0
  3  7  1  0  0  0  0
  3  8  1  0  0  0  0
  4  9  2  0  0  0  0
  5 10  1  0  0  0  0
  5  9  1  0  0  0  0
  6 11  2  0  0  0  0
  7 12  1  0  0  0  0
  8 13  1  0  0  0  0
  8 14  1  6  0  0  0
 10 15  2  0  0  0  0
 10 16  1  0  0  0  0
 11 15  1  0  0  0  0
 12 17  1  1  0  0  0
 12 13  1  0  0  0  0
 13 18  1  6  0  0  0
 17 19  1  0  0  0  0
 19 20  1  0  0  0  0
 20 21  1  0  0  0  0
 20 22  1  0  0  0  0
 20 23  2  0  0  0  0
 21 24  1  0  0  0  0
 24 25  1  0  0  0  0
 24 26  1  0  0  0  0
 24 27  2  0  0  0  0
M  END
>  <Mol_ID> (138)
4058

>  <Formula> (138)
C10H15N5O10P2

>  <MolWeight> (138)
427.201122

>  <Cat> (138)
S9368

>  <Name> (138)
ADP

>  <Form> (138)
free base

>  <CAS> (138)
58-64-0

$$$$
S9369 Xanthosine Dihydrate.cdx
csChFnd80/01042310162D

 20 22  0  0  0  0  0  0  0  0999 V2000
    3.5383    3.3080    0.0000 C   0  0  0  0  0  0  0  0  0  0  0  0
    4.6938    4.1167    0.0000 N   0  0  0  0  0  0  0  0  0  0  0  0
    2.4156    4.1422    0.0000 C   0  0  0  0  0  0  0  0  0  0  0  0
    3.3798    1.9412    0.0000 N   0  0  0  0  0  0  0  0  0  0  0  0
    6.0230    3.6770    0.0000 C   0  0  2  0  0  0  0  0  0  0  0  0
    4.2611    5.4427    0.0000 C   0  0  0  0  0  0  0  0  0  0  0  0
    2.8513    5.4710    0.0000 N   0  0  0  0  0  0  0  0  0  0  0  0
    1.1288    3.5857    0.0000 C   0  0  0  0  0  0  0  0  0  0  0  0
    2.0895    1.3832    0.0000 C   0  0  0  0  0  0  0  0  0  0  0  0
    7.1427    4.4777    0.0000 O   0  0  0  0  0  0  0  0  0  0  0  0
    6.4582    2.3468    0.0000 C   0  0  1  0  0  0  0  0  0  0  0  0
    0.9702    2.2177    0.0000 N   0  0  0  0  0  0  0  0  0  0  0  0
    0.0000    4.4245    0.0000 O   0  0  0  0  0  0  0  0  0  0  0  0
    1.9292    0.0000    0.0000 O   0  0  0  0  0  0  0  0  0  0  0  0
    8.2709    3.6571    0.0000 C   0  0  1  0  0  0  0  0  0  0  0  0
    7.8640    2.3468    0.0000 C   0  0  1  0  0  0  0  0  0  0  0  0
    5.6326    1.2160    0.0000 O   0  0  0  0  0  0  0  0  0  0  0  0
    9.6019    4.0912    0.0000 C   0  0  0  0  0  0  0  0  0  0  0  0
    8.6875    1.2146    0.0000 O   0  0  0  0  0  0  0  0  0  0  0  0
   10.6433    3.1554    0.0000 O   0  0  0  0  0  0  0  0  0  0  0  0
  1  2  1  0  0  0  0
  1  3  2  0  0  0  0
  1  4  1  0  0  0  0
  5  2  1  6  0  0  0
  2  6  1  0  0  0  0
  3  7  1  0  0  0  0
  3  8  1  0  0  0  0
  4  9  1  0  0  0  0
  5 10  1  0  0  0  0
  5 11  1  0  0  0  0
  6  7  2  0  0  0  0
  8 12  1  0  0  0  0
  8 13  2  0  0  0  0
  9 14  2  0  0  0  0
  9 12  1  0  0  0  0
 10 15  1  0  0  0  0
 11 16  1  0  0  0  0
 11 17  1  1  0  0  0
 15 18  1  6  0  0  0
 15 16  1  0  0  0  0
 16 19  1  1  0  0  0
 18 20  1  0  0  0  0
M  END
>  <Mol_ID> (139)
4059

>  <Formula> (139)
C10H12N4O6

>  <MolWeight> (139)
284.22548

>  <Cat> (139)
S9369

>  <Name> (139)
Xanthosine

>  <Form> (139)
free base

>  <CAS> (139)
146-80-5

$$$$
S9430 Tomatidine.cdx
csChFnd80/01042310162D

 37 41  0  0  0  0  0  0  0  0999 V2000
   10.7826    6.6746    0.0000 C   0  0  1  0  0  0  0  0  0  0  0  0
    8.5520    6.6746    0.0000 C   0  0  2  0  0  0  0  0  0  0  0  0
   10.7711    5.5680    0.0000 O   0  0  0  0  0  0  0  0  0  0  0  0
   10.7826    8.1291    0.0000 C   0  0  0  0  0  0  0  0  0  0  0  0
   11.9994    5.9737    0.0000 N   0  0  0  0  0  0  0  0  0  0  0  0
    8.5403    5.4928    0.0000 C   0  0  1  0  0  0  0  0  0  0  0  0
    7.3177    7.3354    0.0000 C   0  0  0  0  0  0  0  0  0  0  0  0
    9.7398    4.7859    0.0000 C   0  0  2  0  0  0  0  0  0  0  0  0
   11.9994    8.8649    0.0000 C   0  0  0  0  0  0  0  0  0  0  0  0
   13.2220    6.7094    0.0000 C   0  0  0  0  0  0  0  0  0  0  0  0
    7.3177    4.8034    0.0000 C   0  0  2  0  0  0  0  0  0  0  0  0
    9.7398    3.4128    0.0000 C   0  0  0  0  0  0  0  0  0  0  0  0
   13.2220    8.1580    0.0000 C   0  0  1  0  0  0  0  0  0  0  0  0
    7.3177    3.4128    0.0000 C   0  0  1  0  0  0  0  0  0  0  0  0
    6.1011    5.4928    0.0000 C   0  0  0  0  0  0  0  0  0  0  0  0
    7.3177    6.0838    0.0000 C   0  0  0  0  0  0  0  0  0  0  0  0
   14.4213    8.8937    0.0000 C   0  0  0  0  0  0  0  0  0  0  0  0
    6.1011    2.8391    0.0000 C   0  0  1  0  0  0  0  0  0  0  0  0
    4.8845    4.8034    0.0000 C   0  0  0  0  0  0  0  0  0  0  0  0
    4.8845    3.4128    0.0000 C   0  0  2  0  0  0  0  0  0  0  0  0
    6.1011    1.3385    0.0000 C   0  0  0  0  0  0  0  0  0  0  0  0
    3.6675    2.7115    0.0000 C   0  0  2  0  0  0  0  0  0  0  0  0
    4.8845    0.6373    0.0000 C   0  0  0  0  0  0  0  0  0  0  0  0
    3.6675    1.3385    0.0000 C   0  0  1  0  0  0  0  0  0  0  0  0
    2.4509    3.4128    0.0000 C   0  0  0  0  0  0  0  0  0  0  0  0
    3.6675    3.8704    0.0000 C   0  0  0  0  0  0  0  0  0  0  0  0
    2.4509    0.6373    0.0000 C   0  0  0  0  0  0  0  0  0  0  0  0
    1.2341    2.7115    0.0000 C   0  0  0  0  0  0  0  0  0  0  0  0
    1.2341    1.3385    0.0000 C   0  0  2  0  0  0  0  0  0  0  0  0
    0.0000    0.6373    0.0000 O   0  0  0  0  0  0  0  0  0  0  0  0
    8.5520    4.2585    0.0000 H   0  0  0  0  0  0  0  0  0  0  0  0
   10.6437    4.2585    0.0000 H   0  0  0  0  0  0  0  0  0  0  0  0
    7.3352    2.0106    0.0000 H   0  0  0  0  0  0  0  0  0  0  0  0
    6.1011    4.2122    0.0000 H   0  0  0  0  0  0  0  0  0  0  0  0
    4.8845    2.0742    0.0000 H   0  0  0  0  0  0  0  0  0  0  0  0
    3.6675    0.0000    0.0000 H   0  0  0  0  0  0  0  0  0  0  0  0
   11.6575    1.7613    0.0000 Cl  0  0  0  0  0  0  0  0  0  0  0  0
  1  2  1  0  0  0  0
  1  3  1  6  0  0  0
  1  4  1  0  0  0  0
  1  5  1  1  0  0  0
  2  6  1  0  0  0  0
  2  7  1  6  0  0  0
  3  8  1  0  0  0  0
  4  9  1  0  0  0  0
  5 10  1  0  0  0  0
  6 11  1  0  0  0  0
  6  8  1  0  0  0  0
  6 31  1  6  0  0  0
  8 12  1  0  0  0  0
  8 32  1  6  0  0  0
  9 13  1  0  0  0  0
 10 13  1  0  0  0  0
 11 14  1  0  0  0  0
 11 15  1  0  0  0  0
 11 16  1  1  0  0  0
 12 14  1  0  0  0  0
 13 17  1  6  0  0  0
 14 18  1  0  0  0  0
 14 33  1  6  0  0  0
 15 19  1  0  0  0  0
 18 20  1  0  0  0  0
 18 21  1  0  0  0  0
 18 34  1  1  0  0  0
 19 20  1  0  0  0  0
 20 22  1  0  0  0  0
 20 35  1  6  0  0  0
 21 23  1  0  0  0  0
 22 24  1  0  0  0  0
 22 25  1  0  0  0  0
 22 26  1  1  0  0  0
 23 24  1  0  0  0  0
 24 27  1  0  0  0  0
 24 36  1  6  0  0  0
 25 28  1  0  0  0  0
 27 29  1  0  0  0  0
 28 29  1  0  0  0  0
 29 30  1  1  0  0  0
M  END
>  <Mol_ID> (140)
4098

>  <Formula> (140)
C27H46ClNO2

>  <MolWeight> (140)
452.11264

>  <Cat> (140)
S9430

>  <Name> (140)
Tomatidine

>  <Form> (140)
free base

>  <CAS> (140)
6192-62-7

$$$$

csChFnd80/01042310162D

 16 17  0  0  0  0  0  0  0  0999 V2000
    3.6378    4.1817    0.0000 C   0  0  0  0  0  0  0  0  0  0  0  0
    2.4401    3.4902    0.0000 N   0  0  0  0  0  0  0  0  0  0  0  0
    3.6378    5.5775    0.0000 C   0  0  0  0  0  0  0  0  0  0  0  0
    4.9572    3.7399    0.0000 N   0  0  0  0  0  0  0  0  0  0  0  0
    1.2269    4.1906    0.0000 C   0  0  0  0  0  0  0  0  0  0  0  0
    2.4401    2.0849    0.0000 C   0  0  0  0  0  0  0  0  0  0  0  0
    2.4228    6.2790    0.0000 C   0  0  0  0  0  0  0  0  0  0  0  0
    4.9725    6.0011    0.0000 N   0  0  0  0  0  0  0  0  0  0  0  0
    5.7861    4.8631    0.0000 C   0  0  0  0  0  0  0  0  0  0  0  0
    1.2269    5.5885    0.0000 N   0  0  0  0  0  0  0  0  0  0  0  0
    0.0058    3.4856    0.0000 O   0  0  0  0  0  0  0  0  0  0  0  0
    3.6525    1.3849    0.0000 C   0  0  0  0  0  0  0  0  0  0  0  0
    2.4228    7.6925    0.0000 O   0  0  0  0  0  0  0  0  0  0  0  0
    0.0000    6.2969    0.0000 C   0  0  0  0  0  0  0  0  0  0  0  0
    3.6525    0.0000    0.0000 C   0  0  0  0  0  0  0  0  0  0  0  0
    4.8853    2.0966    0.0000 C   0  0  0  0  0  0  0  0  0  0  0  0
  1  2  1  0  0  0  0
  1  3  2  0  0  0  0
  1  4  1  0  0  0  0
  2  5  1  0  0  0  0
  2  6  1  0  0  0  0
  3  7  1  0  0  0  0
  3  8  1  0  0  0  0
  4  9  1  0  0  0  0
  5 10  1  0  0  0  0
  5 11  2  0  0  0  0
  6 12  1  0  0  0  0
  7 13  2  0  0  0  0
  7 10  1  0  0  0  0
  8  9  2  0  0  0  0
 10 14  1  0  0  0  0
 12 15  1  0  0  0  0
 12 16  1  0  0  0  0
M  END
>  <Mol_ID> (141)
4119

>  <Formula> (141)
C10H14N4O2

>  <MolWeight> (141)
222.24376

>  <Cat> (141)
S5836

>  <Name> (141)
IBMX

>  <Synonyms> (141)
Isobutylmethylxanthine, 1-Methyl-3-Isobutylxanthine

>  <Target> (141)
PDE

>  <Form> (141)
Free Base

>  <CAS> (141)
28822-58-4

>  <URL> (141)
http://www.selleckchem.com/products/ibmx.html

$$$$

csChFnd80/01042310162D

 17 18  0  0  0  0  0  0  0  0999 V2000
    4.1775    2.9624    0.0000 C   0  0  2  0  0  0  0  0  0  0  0  0
    5.3899    3.6624    0.0000 N   0  0  0  0  0  0  0  0  0  0  0  0
    2.8985    3.5318    0.0000 O   0  0  0  0  0  0  0  0  0  0  0  0
    4.0312    1.5700    0.0000 C   0  0  0  0  0  0  0  0  0  0  0  0
    5.3899    5.0624    0.0000 C   0  0  0  0  0  0  0  0  0  0  0  0
    6.6024    2.9624    0.0000 C   0  0  0  0  0  0  0  0  0  0  0  0
    1.9618    2.4914    0.0000 C   0  0  1  0  0  0  0  0  0  0  0  0
    2.6618    1.2790    0.0000 C   0  0  1  0  0  0  0  0  0  0  0  0
    6.6024    5.7624    0.0000 N   0  0  0  0  0  0  0  0  0  0  0  0
    4.1775    5.7624    0.0000 O   0  0  0  0  0  0  0  0  0  0  0  0
    7.8148    3.6624    0.0000 C   0  0  0  0  0  0  0  0  0  0  0  0
    0.5694    2.6377    0.0000 C   0  0  0  0  0  0  0  0  0  0  0  0
    2.0923    0.0000    0.0000 O   0  0  0  0  0  0  0  0  0  0  0  0
    7.8148    5.0624    0.0000 C   0  0  0  0  0  0  0  0  0  0  0  0
    9.0273    2.9624    0.0000 C   0  0  0  0  0  0  0  0  0  0  0  0
    0.0000    3.9167    0.0000 O   0  0  0  0  0  0  0  0  0  0  0  0
    9.0273    5.7624    0.0000 N   0  0  0  0  0  0  0  0  0  0  0  0
  1  2  1  1  0  0  0
  1  3  1  0  0  0  0
  1  4  1  0  0  0  0
  2  5  1  0  0  0  0
  2  6  1  0  0  0  0
  3  7  1  0  0  0  0
  4  8  1  0  0  0  0
  5  9  1  0  0  0  0
  5 10  2  0  0  0  0
  6 11  2  0  0  0  0
  7 12  1  1  0  0  0
  7  8  1  0  0  0  0
  8 13  1  6  0  0  0
  9 14  2  0  0  0  0
 11 15  1  0  0  0  0
 11 14  1  0  0  0  0
 12 16  1  0  0  0  0
 14 17  1  0  0  0  0
M  END
>  <Mol_ID> (142)
4151

>  <Formula> (142)
C10H15N3O4

>  <MolWeight> (142)
241.2438

>  <Cat> (142)
S5907

>  <Name> (142)
5-Methyl-2'-deoxycytidine

>  <Synonyms> (142)
5-Methyldeoxycytidine, 5MedCyd

>  <Target> (142)
Others

>  <Form> (142)
Free Base

>  <CAS> (142)
838-07-3

>  <URL> (142)
http://www.selleckchem.com/products/5-methyl-2-deoxycytidine.html

$$$$
S9007 2'-Deoxyguanosine monohydrate.cdx
csChFnd80/01042310162D

 19 21  0  0  0  0  0  0  0  0999 V2000
    7.7229    0.0000    0.0000 O   0  0  0  0  0  0  0  0  0  0  0  0
    7.8689    1.3924    0.0000 C   0  0  0  0  0  0  0  0  0  0  0  0
    6.7361    2.2150    0.0000 C   0  0  2  0  0  0  0  0  0  0  0  0
    5.4046    1.7821    0.0000 C   0  0  1  0  0  0  0  0  0  0  0  0
    4.9723    0.4505    0.0000 O   0  0  0  0  0  0  0  0  0  0  0  0
    4.5818    2.9144    0.0000 C   0  0  0  0  0  0  0  0  0  0  0  0
    5.4043    4.0473    0.0000 C   0  0  1  0  0  0  0  0  0  0  0  0
    6.7357    3.6148    0.0000 O   0  0  0  0  0  0  0  0  0  0  0  0
    4.9714    5.3787    0.0000 N   0  0  0  0  0  0  0  0  0  0  0  0
    5.7941    6.5115    0.0000 C   0  0  0  0  0  0  0  0  0  0  0  0
    4.9709    7.6439    0.0000 N   0  0  0  0  0  0  0  0  0  0  0  0
    3.6396    7.2109    0.0000 C   0  0  0  0  0  0  0  0  0  0  0  0
    2.4323    7.9106    0.0000 C   0  0  0  0  0  0  0  0  0  0  0  0
    2.4323    9.3106    0.0000 O   0  0  0  0  0  0  0  0  0  0  0  0
    1.2147    7.2104    0.0000 N   0  0  0  0  0  0  0  0  0  0  0  0
    1.2124    5.8150    0.0000 C   0  0  0  0  0  0  0  0  0  0  0  0
    0.0000    5.1150    0.0000 N   0  0  0  0  0  0  0  0  0  0  0  0
    2.4277    5.1106    0.0000 N   0  0  0  0  0  0  0  0  0  0  0  0
    3.6399    5.8109    0.0000 C   0  0  0  0  0  0  0  0  0  0  0  0
  1  2  1  0  0  0  0
  3  2  1  6  0  0  0
  3  4  1  0  0  0  0
  4  5  1  1  0  0  0
  4  6  1  0  0  0  0
  6  7  1  0  0  0  0
  7  8  1  0  0  0  0
  3  8  1  0  0  0  0
  7  9  1  6  0  0  0
  9 10  1  0  0  0  0
 10 11  2  0  0  0  0
 11 12  1  0  0  0  0
 12 13  1  0  0  0  0
 13 14  2  0  0  0  0
 13 15  1  0  0  0  0
 15 16  1  0  0  0  0
 16 17  1  0  0  0  0
 16 18  2  0  0  0  0
 18 19  1  0  0  0  0
 12 19  2  0  0  0  0
  9 19  1  0  0  0  0
M  END
>  <Mol_ID> (143)
4217

>  <Formula> (143)
C10H13N5O4

>  <MolWeight> (143)
267.24132

>  <Cat> (143)
S9007

>  <Name> (143)
2'-Deoxyguanosine

>  <Form> (143)
free base

>  <CAS> (143)
961-07-9

$$$$
S9275 Isoguanosine.cdx
csChFnd80/01042310162D

 20 22  0  0  0  0  0  0  0  0999 V2000
    3.6385    5.6609    0.0000 C   0  0  0  0  0  0  0  0  0  0  0  0
    4.9701    5.2281    0.0000 N   0  0  0  0  0  0  0  0  0  0  0  0
    3.6385    7.0621    0.0000 C   0  0  0  0  0  0  0  0  0  0  0  0
    2.4251    4.9603    0.0000 N   0  0  0  0  0  0  0  0  0  0  0  0
    5.4023    3.8975    0.0000 C   0  0  2  0  0  0  0  0  0  0  0  0
    5.7930    6.3604    0.0000 C   0  0  0  0  0  0  0  0  0  0  0  0
    4.9710    7.4936    0.0000 N   0  0  0  0  0  0  0  0  0  0  0  0
    2.4244    7.7631    0.0000 C   0  0  0  0  0  0  0  0  0  0  0  0
    1.2121    5.6607    0.0000 C   0  0  0  0  0  0  0  0  0  0  0  0
    4.5757    2.7589    0.0000 O   0  0  0  0  0  0  0  0  0  0  0  0
    6.7082    3.4744    0.0000 C   0  0  1  0  0  0  0  0  0  0  0  0
    1.2112    7.0626    0.0000 N   0  0  0  0  0  0  0  0  0  0  0  0
    2.4244    9.1629    0.0000 N   0  0  0  0  0  0  0  0  0  0  0  0
    0.0000    4.9609    0.0000 O   0  0  0  0  0  0  0  0  0  0  0  0
    5.3960    1.6244    0.0000 C   0  0  1  0  0  0  0  0  0  0  0  0
    6.7082    2.0767    0.0000 C   0  0  1  0  0  0  0  0  0  0  0  0
    7.8307    4.3013    0.0000 O   0  0  0  0  0  0  0  0  0  0  0  0
    4.9731    0.2909    0.0000 C   0  0  0  0  0  0  0  0  0  0  0  0
    7.8562    1.2685    0.0000 O   0  0  0  0  0  0  0  0  0  0  0  0
    3.6046    0.0000    0.0000 O   0  0  0  0  0  0  0  0  0  0  0  0
  1  2  1  0  0  0  0
  1  3  2  0  0  0  0
  1  4  1  0  0  0  0
  5  2  1  1  0  0  0
  2  6  1  0  0  0  0
  3  7  1  0  0  0  0
  3  8  1  0  0  0  0
  4  9  1  0  0  0  0
  5 10  1  0  0  0  0
  5 11  1  0  0  0  0
  6  7  2  0  0  0  0
  8 12  2  0  0  0  0
  8 13  1  0  0  0  0
  9 14  2  0  0  0  0
  9 12  1  0  0  0  0
 10 15  1  0  0  0  0
 11 16  1  0  0  0  0
 11 17  1  6  0  0  0
 15 18  1  1  0  0  0
 15 16  1  0  0  0  0
 16 19  1  6  0  0  0
 18 20  1  0  0  0  0
M  END
>  <Mol_ID> (144)
4411

>  <Formula> (144)
C10H13N5O5

>  <MolWeight> (144)
283.24072

>  <Cat> (144)
S9275

>  <Name> (144)
Isoguanosine

>  <Form> (144)
free base

>  <CAS> (144)
1818-71-9

$$$$
S5505 2'-deoxyuridine.cdx
csChFnd80/01042310162D

 16 17  0  0  0  0  0  0  0  0999 V2000
    2.9326    3.3102    0.0000 C   0  0  2  0  0  0  0  0  0  0  0  0
    2.9326    4.7102    0.0000 N   0  0  0  0  0  0  0  0  0  0  0  0
    1.8091    2.4727    0.0000 O   0  0  0  0  0  0  0  0  0  0  0  0
    4.0524    2.4646    0.0000 C   0  0  0  0  0  0  0  0  0  0  0  0
    1.7442    5.4002    0.0000 C   0  0  0  0  0  0  0  0  0  0  0  0
    4.1306    5.3979    0.0000 C   0  0  0  0  0  0  0  0  0  0  0  0
    2.2204    1.1283    0.0000 C   0  0  1  0  0  0  0  0  0  0  0  0
    3.6072    1.1377    0.0000 C   0  0  1  0  0  0  0  0  0  0  0  0
    1.7264    6.8209    0.0000 N   0  0  0  0  0  0  0  0  0  0  0  0
    0.5317    4.7002    0.0000 O   0  0  0  0  0  0  0  0  0  0  0  0
    4.1364    6.8368    0.0000 C   0  0  0  0  0  0  0  0  0  0  0  0
    1.3915    0.0000    0.0000 C   0  0  0  0  0  0  0  0  0  0  0  0
    4.4285    0.0039    0.0000 O   0  0  0  0  0  0  0  0  0  0  0  0
    2.9038    7.5370    0.0000 C   0  0  0  0  0  0  0  0  0  0  0  0
    0.0000    0.1537    0.0000 O   0  0  0  0  0  0  0  0  0  0  0  0
    2.9038    8.9369    0.0000 O   0  0  0  0  0  0  0  0  0  0  0  0
  1  2  1  1  0  0  0
  1  3  1  0  0  0  0
  1  4  1  0  0  0  0
  2  5  1  0  0  0  0
  2  6  1  0  0  0  0
  3  7  1  0  0  0  0
  4  8  1  0  0  0  0
  5  9  1  0  0  0  0
  5 10  2  0  0  0  0
  6 11  2  0  0  0  0
  7 12  1  1  0  0  0
  7  8  1  0  0  0  0
  8 13  1  6  0  0  0
  9 14  1  0  0  0  0
 11 14  1  0  0  0  0
 12 15  1  0  0  0  0
 14 16  2  0  0  0  0
M  END
>  <Mol_ID> (145)
4484

>  <Formula> (145)
C9H12N2O5

>  <MolWeight> (145)
228.20198

>  <Cat> (145)
S5505

>  <Name> (145)
2'-deoxyuridine

>  <Target> (145)
kinase

>  <CAS> (145)
951-78-0

>  <URL> (145)
http://selleckchem.com/products/.html

$$$$
S9012 Khasianine.cdx
csChFnd80/01042310162D

 56 63  0  0  0  0  0  0  0  0999 V2000
    3.4996    3.6405    0.0000 C   0  0  1  0  0  0  0  0  0  0  0  0
    5.5996    4.8529    0.0000 C   0  0  2  0  0  0  0  0  0  0  0  0
    8.4003    4.8579    0.0000 C   0  0  2  0  0  0  0  0  0  0  0  0
    2.1000    3.6405    0.0000 C   0  0  1  0  0  0  0  0  0  0  0  0
    7.7010    3.6410    0.0000 C   0  0  1  0  0  0  0  0  0  0  0  0
    6.2994    3.6410    0.0000 C   0  0  1  0  0  0  0  0  0  0  0  0
    1.4000    2.4281    0.0000 C   0  0  1  0  0  0  0  0  0  0  0  0
    7.6978    6.0688    0.0000 O   0  0  0  0  0  0  0  0  0  0  0  0
    4.1996    4.8529    0.0000 O   0  0  0  0  0  0  0  0  0  0  0  0
    4.1991    2.4290    0.0000 O   0  0  0  0  0  0  0  0  0  0  0  0
    2.0969    1.2196    0.0000 C   0  0  2  0  0  0  0  0  0  0  0  0
    6.3026    6.0702    0.0000 C   0  0  2  0  0  0  0  0  0  0  0  0
    3.4959    1.2124    0.0000 C   0  0  2  0  0  0  0  0  0  0  0  0
    8.4010    2.4285    0.0000 O   0  0  0  0  0  0  0  0  0  0  0  0
    1.4000    4.8529    0.0000 O   0  0  0  0  0  0  0  0  0  0  0  0
    5.5994    2.4285    0.0000 O   0  0  0  0  0  0  0  0  0  0  0  0
    0.0000    2.4281    0.0000 O   0  0  0  0  0  0  0  0  0  0  0  0
    1.3969    0.0072    0.0000 O   0  0  0  0  0  0  0  0  0  0  0  0
    5.6026    7.2826    0.0000 C   0  0  0  0  0  0  0  0  0  0  0  0
    4.2028    7.2826    0.0000 O   0  0  0  0  0  0  0  0  0  0  0  0
    4.1959    0.0000    0.0000 C   0  0  0  0  0  0  0  0  0  0  0  0
   13.8506   12.1706    0.0000 C   0  0  1  0  0  0  0  0  0  0  0  0
   16.2801   14.9721    0.0000 C   0  0  3  0  0  0  0  0  0  0  0  0
   14.6413   11.0231    0.0000 C   0  0  2  0  0  0  0  0  0  0  0  0
   11.8361    8.4949    0.0000 C   0  0  1  0  0  0  0  0  0  0  0  0
   14.8572   13.1949    0.0000 C   0  0  2  0  0  0  0  0  0  0  0  0
   12.5448    7.3111    0.0000 C   0  0  0  0  0  0  0  0  0  0  0  0
   16.9905   13.7660    0.0000 O   0  0  0  0  0  0  0  0  0  0  0  0
   16.0799   12.7114    0.0000 C   0  0  1  0  0  0  0  0  0  0  0  0
   12.5449    9.7279    0.0000 C   0  0  2  0  0  0  0  0  0  0  0  0
   13.9235    9.7696    0.0000 C   0  0  1  0  0  0  0  0  0  0  0  0
   15.9597   11.3168    0.0000 C   0  0  0  0  0  0  0  0  0  0  0  0
   17.6650   15.1315    0.0000 N   0  0  0  0  0  0  0  0  0  0  0  0
   14.9098   14.6556    0.0000 C   0  0  2  0  0  0  0  0  0  0  0  0
   12.4985   12.1587    0.0000 C   0  0  0  0  0  0  0  0  0  0  0  0
   13.9476    7.3606    0.0000 C   0  0  0  0  0  0  0  0  0  0  0  0
   14.6310    8.5685    0.0000 C   0  0  0  0  0  0  0  0  0  0  0  0
   11.8226   10.9640    0.0000 C   0  0  0  0  0  0  0  0  0  0  0  0
    9.7899    4.8579    0.0000 O   0  0  0  0  0  0  0  0  0  0  0  0
   10.4581    8.4877    0.0000 C   0  0  0  0  0  0  0  0  0  0  0  0
   11.8659    6.1111    0.0000 C   0  0  0  0  0  0  0  0  0  0  0  0
   15.4382   16.0918    0.0000 C   0  0  0  0  0  0  0  0  0  0  0  0
   10.4899    6.0704    0.0000 C   0  0  2  0  0  0  0  0  0  0  0  0
   18.2193   16.4171    0.0000 C   0  0  0  0  0  0  0  0  0  0  0  0
   13.0881   13.3447    0.0000 C   0  0  0  0  0  0  0  0  0  0  0  0
    9.7727    7.2763    0.0000 C   0  0  0  0  0  0  0  0  0  0  0  0
   10.7161   10.4348    0.0000 C   0  0  0  0  0  0  0  0  0  0  0  0
   15.9928   17.3773    0.0000 C   0  0  0  0  0  0  0  0  0  0  0  0
   17.3833   17.5400    0.0000 C   0  0  1  0  0  0  0  0  0  0  0  0
   13.8299   15.5467    0.0000 C   0  0  0  0  0  0  0  0  0  0  0  0
   17.9377   18.8255    0.0000 C   0  0  0  0  0  0  0  0  0  0  0  0
   13.6868   13.9631    0.0000 H   0  0  0  0  0  0  0  0  0  0  0  0
   17.3699   12.1673    0.0000 H   0  0  0  0  0  0  0  0  0  0  0  0
   15.9282    9.7362    0.0000 H   0  0  0  0  0  0  0  0  0  0  0  0
   15.3043    9.5385    0.0000 H   0  0  0  0  0  0  0  0  0  0  0  0
   10.3050    9.7279    0.0000 H   0  0  0  0  0  0  0  0  0  0  0  0
 13 10  1  0  0  0  0
  5 14  1  6  0  0  0
  4 15  1  1  0  0  0
  6 16  1  1  0  0  0
  7 17  1  1  0  0  0
 11 18  1  6  0  0  0
 12 19  1  1  0  0  0
 20 19  1  0  0  0  0
 13 21  1  1  0  0  0
  2 12  1  0  0  0  0
 11  7  1  0  0  0  0
  1  9  1  1  0  0  0
  2  6  1  0  0  0  0
  4  1  1  0  0  0  0
  5  3  1  0  0  0  0
  6  5  1  0  0  0  0
  7  4  1  0  0  0  0
  8  3  1  0  0  0  0
  2  9  1  6  0  0  0
 10  1  1  0  0  0  0
 11 13  1  0  0  0  0
 12  8  1  0  0  0  0
 23 34  1  0  0  0  0
 24 22  1  0  0  0  0
 25 30  1  0  0  0  0
 26 22  1  0  0  0  0
 27 25  1  0  0  0  0
 28 29  1  0  0  0  0
 29 26  1  0  0  0  0
 30 38  1  0  0  0  0
 31 24  1  0  0  0  0
 32 24  1  0  0  0  0
 33 23  1  0  0  0  0
 34 26  1  0  0  0  0
 35 22  1  0  0  0  0
 36 37  1  0  0  0  0
 37 31  1  0  0  0  0
 38 35  1  0  0  0  0
 43 39  1  1  0  0  0
 40 25  1  0  0  0  0
 41 27  1  0  0  0  0
 42 23  1  0  0  0  0
 43 46  1  0  0  0  0
 44 33  1  0  0  0  0
 22 45  1  1  0  0  0
 46 40  1  0  0  0  0
 25 47  1  1  0  0  0
 48 42  1  0  0  0  0
 49 44  1  0  0  0  0
 34 50  1  6  0  0  0
 49 51  1  1  0  0  0
 26 52  1  6  0  0  0
 29 53  1  6  0  0  0
 24 54  1  6  0  0  0
 31 55  1  1  0  0  0
 30 56  1  6  0  0  0
 32 29  1  0  0  0  0
 30 31  1  0  0  0  0
 28 23  1  0  0  0  0
 27 36  2  0  0  0  0
 49 48  1  0  0  0  0
 43 41  1  0  0  0  0
  3 39  1  6  0  0  0
M  END
>  <Mol_ID> (146)
4545

>  <Formula> (146)
C39H63NO11

>  <MolWeight> (146)
721.91762

>  <Cat> (146)
S9012

>  <Name> (146)
Khasianine

>  <Form> (146)
free base

>  <CAS> (146)
32449-98-2

$$$$
S9351 2'-Deoxyadenosine monohydrate.cdx
csChFnd80/01042310162D

 19 20  0  0  0  0  0  0  0  0999 V2000
    2.8967    5.3793    0.0000 N   0  0  0  0  0  0  0  0  0  0  0  0
    4.2282    5.8120    0.0000 C   0  0  0  0  0  0  0  0  0  0  0  0
    2.4641    4.0479    0.0000 C   0  0  2  0  0  0  0  0  0  0  0  0
    2.0738    6.5120    0.0000 C   0  0  0  0  0  0  0  0  0  0  0  0
    4.2282    7.2120    0.0000 C   0  0  0  0  0  0  0  0  0  0  0  0
    5.4406    5.1120    0.0000 N   0  0  0  0  0  0  0  0  0  0  0  0
    1.1326    3.6152    0.0000 O   0  0  0  0  0  0  0  0  0  0  0  0
    3.2870    2.9152    0.0000 C   0  0  0  0  0  0  0  0  0  0  0  0
    2.8967    7.6446    0.0000 N   0  0  0  0  0  0  0  0  0  0  0  0
    5.4406    7.9120    0.0000 C   0  0  0  0  0  0  0  0  0  0  0  0
    6.6531    5.8120    0.0000 C   0  0  0  0  0  0  0  0  0  0  0  0
    1.1326    2.2152    0.0000 C   0  0  1  0  0  0  0  0  0  0  0  0
    2.4641    1.7826    0.0000 C   0  0  1  0  0  0  0  0  0  0  0  0
    6.6531    7.2120    0.0000 N   0  0  0  0  0  0  0  0  0  0  0  0
    5.4406    9.3120    0.0000 N   0  0  0  0  0  0  0  0  0  0  0  0
    0.0000    1.3923    0.0000 C   0  0  0  0  0  0  0  0  0  0  0  0
    2.8967    0.4511    0.0000 O   0  0  0  0  0  0  0  0  0  0  0  0
    0.1463    0.0000    0.0000 O   0  0  0  0  0  0  0  0  0  0  0  0
    6.3186    2.8036    0.0000 O   0  0  0  0  0  0  0  0  0  0  0  0
  1  2  1  0  0  0  0
  3  1  1  1  0  0  0
  1  4  1  0  0  0  0
  2  5  2  0  0  0  0
  2  6  1  0  0  0  0
  3  7  1  0  0  0  0
  3  8  1  0  0  0  0
  4  9  2  0  0  0  0
  5 10  1  0  0  0  0
  5  9  1  0  0  0  0
  6 11  2  0  0  0  0
  7 12  1  0  0  0  0
  8 13  1  0  0  0  0
 10 14  2  0  0  0  0
 10 15  1  0  0  0  0
 11 14  1  0  0  0  0
 12 16  1  1  0  0  0
 12 13  1  0  0  0  0
 13 17  1  6  0  0  0
 16 18  1  0  0  0  0
M  END
>  <Mol_ID> (147)
4573

>  <Formula> (147)
C10H15N5O4

>  <MolWeight> (147)
269.2572

>  <Cat> (147)
S9351

>  <Name> (147)
2'-Deoxyadenosine monohydrate

>  <Form> (147)
free base

>  <CAS> (147)
16373-93-6

$$$$
S9382 Thymine.cdx
csChFnd80/01042310162D

  9  9  0  0  0  0  0  0  0  0999 V2000
    2.4248    2.8148    0.0000 C   0  0  0  0  0  0  0  0  0  0  0  0
    1.2081    2.1222    0.0000 C   0  0  0  0  0  0  0  0  0  0  0  0
    3.6330    2.1074    0.0000 N   0  0  0  0  0  0  0  0  0  0  0  0
    2.4334    4.2147    0.0000 O   0  0  0  0  0  0  0  0  0  0  0  0
    1.1996    0.7222    0.0000 C   0  0  0  0  0  0  0  0  0  0  0  0
    0.0000    2.8296    0.0000 C   0  0  0  0  0  0  0  0  0  0  0  0
    3.6244    0.7074    0.0000 C   0  0  0  0  0  0  0  0  0  0  0  0
    2.4077    0.0148    0.0000 N   0  0  0  0  0  0  0  0  0  0  0  0
    4.8326    0.0000    0.0000 O   0  0  0  0  0  0  0  0  0  0  0  0
  1  2  1  0  0  0  0
  1  3  1  0  0  0  0
  1  4  2  0  0  0  0
  2  5  2  0  0  0  0
  2  6  1  0  0  0  0
  3  7  1  0  0  0  0
  5  8  1  0  0  0  0
  7  9  2  0  0  0  0
  7  8  1  0  0  0  0
M  END
>  <Mol_ID> (148)
4590

>  <Formula> (148)
C5H6N2O2

>  <MolWeight> (148)
126.11334

>  <Cat> (148)
S9382

>  <Name> (148)
Thymine

>  <Target> (148)
estrogen related receptor alpha

>  <Form> (148)
free base

>  <CAS> (148)
65-71-4

$$$$
S5678 trans-Zeatin-riboside.cdx
csChFnd80/01042310162D

 25 27  0  0  0  0  0  0  0  0999 V2000
    9.4644    0.0000    0.0000 O   0  0  0  0  0  0  0  0  0  0  0  0
    8.5863    1.0844    0.0000 C   0  0  0  0  0  0  0  0  0  0  0  0
    9.0177    2.4115    0.0000 C   0  0  2  0  0  0  0  0  0  0  0  0
   10.3495    2.8440    0.0000 C   0  0  1  0  0  0  0  0  0  0  0  0
   11.4783    2.0237    0.0000 O   0  0  0  0  0  0  0  0  0  0  0  0
   10.3495    4.2442    0.0000 C   0  0  1  0  0  0  0  0  0  0  0  0
   11.4785    5.0644    0.0000 O   0  0  0  0  0  0  0  0  0  0  0  0
    9.0178    4.6769    0.0000 C   0  0  1  0  0  0  0  0  0  0  0  0
    8.1950    3.5442    0.0000 O   0  0  0  0  0  0  0  0  0  0  0  0
    8.5866    6.0040    0.0000 N   0  0  0  0  0  0  0  0  0  0  0  0
    9.4095    7.1366    0.0000 C   0  0  0  0  0  0  0  0  0  0  0  0
    8.5866    8.2694    0.0000 N   0  0  0  0  0  0  0  0  0  0  0  0
    7.2549    7.8368    0.0000 C   0  0  0  0  0  0  0  0  0  0  0  0
    6.0423    8.5370    0.0000 C   0  0  0  0  0  0  0  0  0  0  0  0
    6.0423    9.9324    0.0000 N   0  0  0  0  0  0  0  0  0  0  0  0
    4.8297    7.8369    0.0000 N   0  0  0  0  0  0  0  0  0  0  0  0
    4.8297    6.4367    0.0000 C   0  0  0  0  0  0  0  0  0  0  0  0
    6.0422    5.7367    0.0000 N   0  0  0  0  0  0  0  0  0  0  0  0
    7.2548    6.4368    0.0000 C   0  0  0  0  0  0  0  0  0  0  0  0
    4.8338   10.6301    0.0000 C   0  0  0  0  0  0  0  0  0  0  0  0
    3.6254    9.9324    0.0000 C   0  0  0  0  0  0  0  0  0  0  0  0
    2.4169   10.6301    0.0000 C   0  0  0  0  0  0  0  0  0  0  0  0
    1.2085    9.9324    0.0000 C   0  0  0  0  0  0  0  0  0  0  0  0
    2.4169   12.0255    0.0000 C   0  0  0  0  0  0  0  0  0  0  0  0
    0.0000   10.6301    0.0000 O   0  0  0  0  0  0  0  0  0  0  0  0
  1  2  1  0  0  0  0
  3  2  1  1  0  0  0
  3  4  1  0  0  0  0
  4  5  1  6  0  0  0
  4  6  1  0  0  0  0
  6  7  1  6  0  0  0
  6  8  1  0  0  0  0
  8  9  1  0  0  0  0
  3  9  1  0  0  0  0
  8 10  1  1  0  0  0
 10 11  1  0  0  0  0
 11 12  2  0  0  0  0
 12 13  1  0  0  0  0
 13 14  1  0  0  0  0
 14 15  1  0  0  0  0
 14 16  2  0  0  0  0
 16 17  1  0  0  0  0
 17 18  2  0  0  0  0
 18 19  1  0  0  0  0
 13 19  2  0  0  0  0
 10 19  1  0  0  0  0
 20 21  1  0  0  0  0
 21 22  2  0  0  0  0
 22 23  1  0  0  0  0
 22 24  1  0  0  0  0
 23 25  1  0  0  0  0
 15 20  1  0  0  0  0
M  END
>  <Mol_ID> (149)
4610

>  <Formula> (149)
C15H21N5O5

>  <MolWeight> (149)
351.35774

>  <Cat> (149)
S5678

>  <Name> (149)
trans-Zeatin-riboside

>  <Synonyms> (149)
N/A

>  <Target> (149)
Others

>  <CAS> (149)
6025-53-2

>  <URL> (149)
http://selleckchem.com/products/trans-zeatin-riboside.html

$$$$

csChFnd80/01042310162D

 21 22  0  0  0  0  0  0  0  0999 V2000
    6.4086    2.4677    0.0000 C   0  0  2  0  0  0  0  0  0  0  0  0
    7.7321    2.9239    0.0000 N   0  0  0  0  0  0  0  0  0  0  0  0
    5.2859    3.2885    0.0000 O   0  0  0  0  0  0  0  0  0  0  0  0
    5.9903    1.1402    0.0000 C   0  0  1  0  0  0  0  0  0  0  0  0
    8.0020    4.3149    0.0000 C   0  0  0  0  0  0  0  0  0  0  0  0
    8.7792    2.0144    0.0000 C   0  0  0  0  0  0  0  0  0  0  0  0
    4.1536    2.4665    0.0000 C   0  0  1  0  0  0  0  0  0  0  0  0
    4.6114    1.1384    0.0000 C   0  0  1  0  0  0  0  0  0  0  0  0
    6.8226    0.0145    0.0000 O   0  0  0  0  0  0  0  0  0  0  0  0
    9.3155    4.7677    0.0000 N   0  0  0  0  0  0  0  0  0  0  0  0
    6.9365    5.2405    0.0000 O   0  0  0  0  0  0  0  0  0  0  0  0
   10.1247    2.4782    0.0000 C   0  0  0  0  0  0  0  0  0  0  0  0
    2.8339    2.9021    0.0000 C   0  0  0  0  0  0  0  0  0  0  0  0
    3.7785    0.0000    0.0000 O   0  0  0  0  0  0  0  0  0  0  0  0
   10.3619    3.8587    0.0000 C   0  0  0  0  0  0  0  0  0  0  0  0
    2.6144    4.2848    0.0000 O   0  0  0  0  0  0  0  0  0  0  0  0
   11.7001    4.3199    0.0000 O   0  0  0  0  0  0  0  0  0  0  0  0
    1.3072    4.7861    0.0000 P   0  0  0  0  0  0  0  0  0  0  0  0
    0.8059    3.4789    0.0000 O   0  0  0  0  0  0  0  0  0  0  0  0
    1.8084    6.0933    0.0000 O   0  0  0  0  0  0  0  0  0  0  0  0
    0.0000    5.2873    0.0000 O   0  0  0  0  0  0  0  0  0  0  0  0
  1  2  1  1  0  0  0
  1  3  1  0  0  0  0
  1  4  1  0  0  0  0
  2  5  1  0  0  0  0
  2  6  1  0  0  0  0
  3  7  1  0  0  0  0
  4  8  1  0  0  0  0
  4  9  1  6  0  0  0
  5 10  1  0  0  0  0
  5 11  2  0  0  0  0
  6 12  2  0  0  0  0
  7 13  1  1  0  0  0
  7  8  1  0  0  0  0
  8 14  1  6  0  0  0
 10 15  1  0  0  0  0
 12 15  1  0  0  0  0
 13 16  1  0  0  0  0
 15 17  2  0  0  0  0
 16 18  1  0  0  0  0
 18 19  1  0  0  0  0
 18 20  1  0  0  0  0
 18 21  2  0  0  0  0
M  END
>  <Mol_ID> (150)
4807

>  <Formula> (150)
C9H13N2O9P

>  <MolWeight> (150)
324.181281

>  <Cat> (150)
S9451

>  <Name> (150)
Uridine 5'-monophosphate

>  <Synonyms> (150)
Uridylic acid, 5'-Uridylic acid, Uridine phosphate, 5'-UMP, Uridine 5'-phosphoric acid

>  <Target> (150)
DNA/RNA Synthesis

>  <Form> (150)
Free Base

>  <CAS> (150)
58-97-9

>  <URL> (150)
http://www.selleckchem.com/products/uridine-5-monophosphate.html

$$$$

csChFnd80/01042310162D

 31 30  0  0  0  0  0  0  0  0999 V2000
    0.0000    1.9929    0.0000 Na  0  3  0  0  0  0  0  0  0  0  0  0
    1.3133    4.6925    0.0000 Na  0  3  0  0  0  0  0  0  0  0  0  0
    7.8769    5.6262    0.0000 C   0  0  0  0  0  0  0  0  0  0  0  0
    9.2263    5.2497    0.0000 C   0  0  2  0  0  0  0  0  0  0  0  0
    9.7185    3.9369    0.0000 C   0  0  1  0  0  0  0  0  0  0  0  0
    8.9490    2.7722    0.0000 O   0  0  0  0  0  0  0  0  0  0  0  0
   11.1175    3.9991    0.0000 C   0  0  1  0  0  0  0  0  0  0  0  0
   11.9875    2.9074    0.0000 O   0  0  0  0  0  0  0  0  0  0  0  0
   11.4906    5.3494    0.0000 C   0  0  1  0  0  0  0  0  0  0  0  0
   10.3219    6.1214    0.0000 O   0  0  0  0  0  0  0  0  0  0  0  0
   12.7978    5.8395    0.0000 N   0  0  0  0  0  0  0  0  0  0  0  0
   13.0277    7.2213    0.0000 C   0  0  0  0  0  0  0  0  0  0  0  0
   11.9497    8.1083    0.0000 O   0  0  0  0  0  0  0  0  0  0  0  0
   14.3393    7.7130    0.0000 N   0  0  0  0  0  0  0  0  0  0  0  0
   15.4211    6.8230    0.0000 C   0  0  0  0  0  0  0  0  0  0  0  0
   16.7282    7.3130    0.0000 N   0  0  0  0  0  0  0  0  0  0  0  0
   15.1911    5.4412    0.0000 C   0  0  0  0  0  0  0  0  0  0  0  0
   13.8795    4.9494    0.0000 C   0  0  0  0  0  0  0  0  0  0  0  0
    5.5403    5.0155    0.0000 P   0  0  3  0  0  0  0  0  0  0  0  0
    4.1964    5.3933    0.0000 O   0  0  0  0  0  0  0  0  0  0  0  0
    6.8898    4.6390    0.0000 O   0  0  0  0  0  0  0  0  0  0  0  0
    5.9182    6.3594    0.0000 O   0  0  0  0  0  0  0  0  0  0  0  0
    5.1639    3.6660    0.0000 O   0  0  0  0  0  0  0  0  0  0  0  0
    3.8084    3.3324    0.0000 P   0  0  3  0  0  0  0  0  0  0  0  0
    2.4528    2.9988    0.0000 O   0  0  0  0  0  0  0  0  0  0  0  0
    3.4761    4.6824    0.0000 O   0  5  0  0  0  0  0  0  0  0  0  0
    4.1434    1.9713    0.0000 O   0  0  0  0  0  0  0  0  0  0  0  0
    3.1553    0.9992    0.0000 P   0  0  3  0  0  0  0  0  0  0  0  0
    4.1303    0.0000    0.0000 O   0  0  0  0  0  0  0  0  0  0  0  0
    2.1562    0.0242    0.0000 O   0  0  0  0  0  0  0  0  0  0  0  0
    2.1804    1.9983    0.0000 O   0  5  0  0  0  0  0  0  0  0  0  0
  4  3  1  1  0  0  0
  4  5  1  0  0  0  0
  5  6  1  6  0  0  0
  5  7  1  0  0  0  0
  7  8  1  6  0  0  0
  7  9  1  0  0  0  0
  9 10  1  0  0  0  0
  4 10  1  0  0  0  0
  9 11  1  1  0  0  0
 11 12  1  0  0  0  0
 12 13  2  0  0  0  0
 12 14  1  0  0  0  0
 14 15  2  0  0  0  0
 15 16  1  0  0  0  0
 15 17  1  0  0  0  0
 17 18  2  0  0  0  0
 11 18  1  0  0  0  0
 19 20  2  0  0  0  0
 19 21  1  0  0  0  0
 19 22  1  0  0  0  0
 19 23  1  0  0  0  0
 23 24  1  0  0  0  0
 24 25  2  0  0  0  0
 24 26  1  0  0  0  0
 24 27  1  0  0  0  0
 27 28  1  0  0  0  0
 28 29  2  0  0  0  0
 28 30  1  0  0  0  0
 28 31  1  0  0  0  0
  3 21  1  0  0  0  0
M  END
>  <Mol_ID> (151)
4957

>  <Formula> (151)
C9H14N3Na2O14P3

>  <MolWeight> (151)
527.119983

>  <Cat> (151)
S6077

>  <Name> (151)
Cytidine 5¡ä-triphosphate (disodium salt)

>  <Synonyms> (151)
N/A

>  <Target> (151)
DNA/RNA Synthesis

>  <Form> (151)
disodium salt

>  <CAS> (151)
36051-68-0

>  <URL> (151)
http://www.selleck.cn/products/cytidine-5-triphosphate-disodium-salt.html

$$$$

csChFnd80/01042310162D

 12 13  0  0  0  0  0  0  0  0999 V2000
    2.4249    2.1000    0.0000 C   0  0  0  0  0  0  0  0  0  0  0  0
    2.4249    0.7000    0.0000 C   0  0  0  0  0  0  0  0  0  0  0  0
    1.2124    2.8000    0.0000 C   0  0  0  0  0  0  0  0  0  0  0  0
    3.7564    2.5326    0.0000 N   0  0  0  0  0  0  0  0  0  0  0  0
    3.7564    0.2674    0.0000 N   0  0  0  0  0  0  0  0  0  0  0  0
    1.2124    0.0000    0.0000 N   0  0  0  0  0  0  0  0  0  0  0  0
    0.0000    2.1000    0.0000 N   0  0  0  0  0  0  0  0  0  0  0  0
    1.2124    4.2000    0.0000 N   0  0  0  0  0  0  0  0  0  0  0  0
    4.5792    1.4000    0.0000 C   0  0  0  0  0  0  0  0  0  0  0  0
    0.0000    0.7000    0.0000 C   0  0  0  0  0  0  0  0  0  0  0  0
    0.0000    4.9000    0.0000 C   0  0  0  0  0  0  0  0  0  0  0  0
    2.4249    4.9000    0.0000 C   0  0  0  0  0  0  0  0  0  0  0  0
  1  2  2  0  0  0  0
  1  3  1  0  0  0  0
  1  4  1  0  0  0  0
  2  5  1  0  0  0  0
  2  6  1  0  0  0  0
  3  7  2  0  0  0  0
  3  8  1  0  0  0  0
  4  9  1  0  0  0  0
  5  9  2  0  0  0  0
  6 10  2  0  0  0  0
  7 10  1  0  0  0  0
  8 11  1  0  0  0  0
  8 12  1  0  0  0  0
M  END
>  <Mol_ID> (152)
4962

>  <Formula> (152)
C7H9N5

>  <MolWeight> (152)
163.17986

>  <Cat> (152)
S6088

>  <Name> (152)
6-(Dimethylamino)purine

>  <Synonyms> (152)
N,N-Dimethyladenine

>  <Target> (152)
Serine/threonin kina

>  <Form> (152)
free base

>  <CAS> (152)
938-55-6

>  <URL> (152)
http://www.selleck.cn/products/6-dimethylamino-purine.html

$$$$

csChFnd80/01042310162D

 10 10  0  0  0  0  0  0  0  0999 V2000
    2.4185    2.1159    0.0000 C   0  0  0  0  0  0  0  0  0  0  0  0
    3.6373    2.8097    0.0000 C   0  0  0  0  0  0  0  0  0  0  0  0
    2.4115    0.7110    0.0000 C   0  0  0  0  0  0  0  0  0  0  0  0
    1.2082    2.8146    0.0000 C   0  0  0  0  0  0  0  0  0  0  0  0
    4.8462    2.1036    0.0000 N   0  0  0  0  0  0  0  0  0  0  0  0
    3.6373    4.2073    0.0000 O   0  0  0  0  0  0  0  0  0  0  0  0
    3.6232    0.0049    0.0000 N   0  0  0  0  0  0  0  0  0  0  0  0
    0.0000    2.1171    0.0000 O   0  0  0  0  0  0  0  0  0  0  0  0
    4.8391    0.6988    0.0000 C   0  0  0  0  0  0  0  0  0  0  0  0
    6.0494    0.0000    0.0000 O   0  0  0  0  0  0  0  0  0  0  0  0
  1  2  1  0  0  0  0
  1  3  2  0  0  0  0
  1  4  1  0  0  0  0
  2  5  1  0  0  0  0
  2  6  2  0  0  0  0
  3  7  1  0  0  0  0
  4  8  1  0  0  0  0
  5  9  1  0  0  0  0
  7  9  1  0  0  0  0
  9 10  2  0  0  0  0
M  END
>  <Mol_ID> (153)
4987

>  <Formula> (153)
C5H6N2O3

>  <MolWeight> (153)
142.11274

>  <Cat> (153)
S6127

>  <Name> (153)
5-Hydroxymethyluracil

>  <Synonyms> (153)
N/A

>  <Target> (153)
Others

>  <Form> (153)
free base

>  <CAS> (153)
4433-40-3

>  <URL> (153)
http://www.selleck.cn/products/5-hydroxymethyluracil.html

$$$$

csChFnd80/01042310162D

 18 19  0  0  0  0  0  0  0  0999 V2000
    4.1553    2.9155    0.0000 C   0  0  1  0  0  0  0  0  0  0  0  0
    5.3830    3.5884    0.0000 N   0  0  0  0  0  0  0  0  0  0  0  0
    3.9782    1.5267    0.0000 C   0  0  1  0  0  0  0  0  0  0  0  0
    2.8893    3.5131    0.0000 O   0  0  0  0  0  0  0  0  0  0  0  0
    5.4140    4.9881    0.0000 C   0  0  0  0  0  0  0  0  0  0  0  0
    6.5796    2.8618    0.0000 C   0  0  0  0  0  0  0  0  0  0  0  0
    2.6027    1.2660    0.0000 C   0  0  1  0  0  0  0  0  0  0  0  0
    4.9976    0.5671    0.0000 O   0  0  0  0  0  0  0  0  0  0  0  0
    1.9297    2.4937    0.0000 C   0  0  1  0  0  0  0  0  0  0  0  0
    6.6416    5.6611    0.0000 N   0  0  0  0  0  0  0  0  0  0  0  0
    4.2174    5.7148    0.0000 O   0  0  0  0  0  0  0  0  0  0  0  0
    7.8073    3.5347    0.0000 C   0  0  0  0  0  0  0  0  0  0  0  0
    2.0051    0.0000    0.0000 O   0  0  0  0  0  0  0  0  0  0  0  0
    0.5410    2.6708    0.0000 C   0  0  0  0  0  0  0  0  0  0  0  0
    7.8383    4.9344    0.0000 C   0  0  0  0  0  0  0  0  0  0  0  0
    9.0039    2.8080    0.0000 C   0  0  0  0  0  0  0  0  0  0  0  0
    0.0000    3.9621    0.0000 O   0  0  0  0  0  0  0  0  0  0  0  0
    9.0659    5.6074    0.0000 N   0  0  0  0  0  0  0  0  0  0  0  0
  1  2  1  1  0  0  0
  1  3  1  0  0  0  0
  1  4  1  0  0  0  0
  2  5  1  0  0  0  0
  2  6  1  0  0  0  0
  3  7  1  0  0  0  0
  3  8  1  6  0  0  0
  4  9  1  0  0  0  0
  5 10  1  0  0  0  0
  5 11  2  0  0  0  0
  6 12  2  0  0  0  0
  7 13  1  6  0  0  0
  7  9  1  0  0  0  0
  9 14  1  1  0  0  0
 10 15  2  0  0  0  0
 12 16  1  0  0  0  0
 12 15  1  0  0  0  0
 14 17  1  0  0  0  0
 15 18  1  0  0  0  0
M  END
>  <Mol_ID> (154)
4991

>  <Formula> (154)
C10H15N3O5

>  <MolWeight> (154)
257.2432

>  <Cat> (154)
S6138

>  <Name> (154)
5-Methylcytidine

>  <Synonyms> (154)
N/A

>  <Target> (154)
Others

>  <Form> (154)
free base

>  <CAS> (154)
2140-61-6

>  <URL> (154)
http://www.selleck.cn/products/5-methylcytidine.html

$$$$

csChFnd80/01042310162D

 18 19  0  0  0  0  0  0  0  0999 V2000
    4.1795    2.9668    0.0000 C   0  0  1  0  0  0  0  0  0  0  0  0
    5.3905    3.6693    0.0000 N   0  0  0  0  0  0  0  0  0  0  0  0
    4.0361    1.5741    0.0000 C   0  0  1  0  0  0  0  0  0  0  0  0
    2.8994    3.5335    0.0000 O   0  0  0  0  0  0  0  0  0  0  0  0
    5.3875    5.0693    0.0000 C   0  0  0  0  0  0  0  0  0  0  0  0
    6.6044    2.9719    0.0000 C   0  0  0  0  0  0  0  0  0  0  0  0
    2.6673    1.2802    0.0000 C   0  0  1  0  0  0  0  0  0  0  0  0
    5.0785    0.6395    0.0000 O   0  0  0  0  0  0  0  0  0  0  0  0
    1.9648    2.4911    0.0000 C   0  0  1  0  0  0  0  0  0  0  0  0
    6.5985    5.7719    0.0000 N   0  0  0  0  0  0  0  0  0  0  0  0
    4.1736    5.7668    0.0000 O   0  0  0  0  0  0  0  0  0  0  0  0
    7.8153    3.6744    0.0000 C   0  0  0  0  0  0  0  0  0  0  0  0
    2.1006    0.0000    0.0000 O   0  0  0  0  0  0  0  0  0  0  0  0
    0.5721    2.6345    0.0000 C   0  0  0  0  0  0  0  0  0  0  0  0
    7.8124    5.0744    0.0000 C   0  0  0  0  0  0  0  0  0  0  0  0
    9.0292    2.9770    0.0000 C   0  0  0  0  0  0  0  0  0  0  0  0
    0.0000    3.9123    0.0000 O   0  0  0  0  0  0  0  0  0  0  0  0
    9.0233    5.7770    0.0000 O   0  0  0  0  0  0  0  0  0  0  0  0
  1  2  1  1  0  0  0
  1  3  1  0  0  0  0
  1  4  1  0  0  0  0
  2  5  1  0  0  0  0
  2  6  1  0  0  0  0
  3  7  1  0  0  0  0
  3  8  1  6  0  0  0
  4  9  1  0  0  0  0
  5 10  1  0  0  0  0
  5 11  2  0  0  0  0
  6 12  2  0  0  0  0
  7 13  1  6  0  0  0
  7  9  1  0  0  0  0
  9 14  1  1  0  0  0
 10 15  1  0  0  0  0
 12 16  1  0  0  0  0
 12 15  1  0  0  0  0
 14 17  1  0  0  0  0
 15 18  2  0  0  0  0
M  END
>  <Mol_ID> (155)
5003

>  <Formula> (155)
C10H14N2O6

>  <MolWeight> (155)
258.22796

>  <Cat> (155)
S6156

>  <Name> (155)
5-Methyluridine

>  <Synonyms> (155)
|Ribothymidine, Ribosylthymine, Thymine riboside

>  <Target> (155)
Others

>  <Form> (155)
free base

>  <CAS> (155)
1463-10-1

>  <URL> (155)
http://www.selleck.cn/products/5-methyluridine.html

$$$$

csChFnd80/01042310162D

 10 10  0  0  0  0  0  0  0  0999 V2000
    2.4249    2.1000    0.0000 C   0  0  0  0  0  0  0  0  0  0  0  0
    2.4249    3.5000    0.0000 C   0  0  0  0  0  0  0  0  0  0  0  0
    1.2124    1.4000    0.0000 N   0  0  0  0  0  0  0  0  0  0  0  0
    3.6373    1.4000    0.0000 C   0  0  0  0  0  0  0  0  0  0  0  0
    1.2124    4.2000    0.0000 C   0  0  0  0  0  0  0  0  0  0  0  0
    3.6373    4.2000    0.0000 O   0  0  0  0  0  0  0  0  0  0  0  0
    0.0000    2.1000    0.0000 C   0  0  0  0  0  0  0  0  0  0  0  0
    4.8497    2.1000    0.0000 O   0  0  0  0  0  0  0  0  0  0  0  0
    3.6373    0.0000    0.0000 O   0  0  0  0  0  0  0  0  0  0  0  0
    0.0000    3.5000    0.0000 C   0  0  0  0  0  0  0  0  0  0  0  0
  1  2  1  0  0  0  0
  1  3  2  0  0  0  0
  1  4  1  0  0  0  0
  2  5  2  0  0  0  0
  2  6  1  0  0  0  0
  3  7  1  0  0  0  0
  4  8  1  0  0  0  0
  4  9  2  0  0  0  0
  5 10  1  0  0  0  0
  7 10  2  0  0  0  0
M  END
>  <Mol_ID> (156)
5018

>  <Formula> (156)
C6H5NO3

>  <MolWeight> (156)
139.1088

>  <Cat> (156)
S6252

>  <Name> (156)
3-Hydroxypicolinic acid

>  <Synonyms> (156)
N/A

>  <Target> (156)
Others

>  <Form> (156)
free base

>  <CAS> (156)
874-24-8

>  <URL> (156)
http://www.selleck.cn/products/3-hydroxypicolinic-acid.html

$$$$

csChFnd80/01042310162D

  8  8  0  0  0  0  0  0  0  0999 V2000
    2.4148    2.0918    0.0000 N   0  0  0  0  0  0  0  0  0  0  0  0
    1.2011    2.7953    0.0000 C   0  0  0  0  0  0  0  0  0  0  0  0
    2.4114    0.7000    0.0000 C   0  0  0  0  0  0  0  0  0  0  0  0
    0.0022    2.1024    0.0000 C   0  0  0  0  0  0  0  0  0  0  0  0
    1.2011    4.1953    0.0000 O   0  0  0  0  0  0  0  0  0  0  0  0
    1.2131    0.0077    0.0000 N   0  0  0  0  0  0  0  0  0  0  0  0
    3.6238    0.0000    0.0000 N   0  0  0  0  0  0  0  0  0  0  0  0
    0.0000    0.6959    0.0000 C   0  0  0  0  0  0  0  0  0  0  0  0
  1  2  1  0  0  0  0
  1  3  1  0  0  0  0
  2  4  1  0  0  0  0
  2  5  2  0  0  0  0
  3  6  2  0  0  0  0
  3  7  1  0  0  0  0
  4  8  2  0  0  0  0
  6  8  1  0  0  0  0
M  END
>  <Mol_ID> (157)
5021

>  <Formula> (157)
C4H5N3O

>  <MolWeight> (157)
111.102

>  <Cat> (157)
S6256

>  <Name> (157)
Isocytosine

>  <Synonyms> (157)
2-aminouracil

>  <Target> (157)
Others

>  <Form> (157)
free base

>  <CAS> (157)
108-53-2

>  <URL> (157)
http://www.selleck.cn/products/isocytosine.html

$$$$

csChFnd80/01042310162D

 46 48  0  0  0  0  0  0  0  0999 V2000
   11.8972   13.2740    0.0000 N   0  0  0  0  0  0  0  0  0  0  0  0
   12.3458   14.6244    0.0000 C   0  0  0  0  0  0  0  0  0  0  0  0
   10.5631   12.8494    0.0000 C   0  0  2  0  0  0  0  0  0  0  0  0
   13.0286   12.4426    0.0000 C   0  0  0  0  0  0  0  0  0  0  0  0
   13.7309   14.6093    0.0000 C   0  0  0  0  0  0  0  0  0  0  0  0
   11.6296   15.7830    0.0000 N   0  0  0  0  0  0  0  0  0  0  0  0
    9.4371   13.6742    0.0000 O   0  0  0  0  0  0  0  0  0  0  0  0
   10.1211   11.5234    0.0000 C   0  0  1  0  0  0  0  0  0  0  0  0
   14.1533   13.2745    0.0000 N   0  0  0  0  0  0  0  0  0  0  0  0
   14.4652   15.8265    0.0000 C   0  0  0  0  0  0  0  0  0  0  0  0
   12.3662   17.0270    0.0000 C   0  0  0  0  0  0  0  0  0  0  0  0
    8.3180   12.8423    0.0000 C   0  0  1  0  0  0  0  0  0  0  0  0
    8.7212   11.5095    0.0000 C   0  0  1  0  0  0  0  0  0  0  0  0
   10.9448   10.3914    0.0000 O   0  0  0  0  0  0  0  0  0  0  0  0
   13.7637   17.0085    0.0000 N   0  0  0  0  0  0  0  0  0  0  0  0
   15.8652   15.8215    0.0000 N   0  0  0  0  0  0  0  0  0  0  0  0
    6.9917   13.2904    0.0000 C   0  0  0  0  0  0  0  0  0  0  0  0
    7.8911   10.3822    0.0000 O   0  0  0  0  0  0  0  0  0  0  0  0
    5.9382   12.3638    0.0000 O   0  0  0  0  0  0  0  0  0  0  0  0
    4.6189   12.8095    0.0000 P   0  0  3  0  0  0  0  0  0  0  0  0
    4.1673   11.4725    0.0000 O   0  0  0  0  0  0  0  0  0  0  0  0
    3.2925   13.2576    0.0000 O   0  0  0  0  0  0  0  0  0  0  0  0
    5.0634   14.1252    0.0000 O   0  5  0  0  0  0  0  0  0  0  0  0
    2.8005   11.1986    0.0000 P   0  0  3  0  0  0  0  0  0  0  0  0
    3.0777    9.8157    0.0000 O   0  0  0  0  0  0  0  0  0  0  0  0
    1.4278   10.9234    0.0000 O   0  0  0  0  0  0  0  0  0  0  0  0
    2.5274   12.5611    0.0000 O   0  5  0  0  0  0  0  0  0  0  0  0
    2.0309    8.8950    0.0000 C   0  0  0  0  0  0  0  0  0  0  0  0
    2.3078    7.5136    0.0000 C   0  0  1  0  0  0  0  0  0  0  0  0
    3.5841    6.9248    0.0000 O   0  0  0  0  0  0  0  0  0  0  0  0
    1.3909    6.4751    0.0000 C   0  0  2  0  0  0  0  0  0  0  0  0
    3.4245    5.5383    0.0000 C   0  0  2  0  0  0  0  0  0  0  0  0
    2.0564    5.2559    0.0000 C   0  0  2  0  0  0  0  0  0  0  0  0
    0.0000    6.6345    0.0000 O   0  0  0  0  0  0  0  0  0  0  0  0
    4.4580    4.5940    0.0000 N   0  0  0  0  0  0  0  0  0  0  0  0
    1.4688    3.9851    0.0000 O   0  0  0  0  0  0  0  0  0  0  0  0
    4.1366    3.2377    0.0000 C   0  0  0  0  0  0  0  0  0  0  0  0
    5.7991    5.0417    0.0000 C   0  0  0  0  0  0  0  0  0  0  0  0
    5.1542    2.2770    0.0000 C   0  0  0  0  0  0  0  0  0  0  0  0
    6.8407    4.0667    0.0000 C   0  0  0  0  0  0  0  0  0  0  0  0
    6.4888    2.6968    0.0000 C   0  0  0  0  0  0  0  0  0  0  0  0
    4.8417    0.9123    0.0000 C   0  0  0  0  0  0  0  0  0  0  0  0
    3.5035    0.5007    0.0000 N   0  0  0  0  0  0  0  0  0  0  0  0
    5.9036    0.0000    0.0000 O   0  0  0  0  0  0  0  0  0  0  0  0
    0.2096   12.5532    0.0000 Na  0  3  0  0  0  0  0  0  0  0  0  0
    6.3346   14.2303    0.0000 Na  0  3  0  0  0  0  0  0  0  0  0  0
  1  2  1  0  0  0  0
  3  1  1  1  0  0  0
  1  4  1  0  0  0  0
  2  5  2  0  0  0  0
  2  6  1  0  0  0  0
  3  7  1  0  0  0  0
  3  8  1  0  0  0  0
  4  9  2  0  0  0  0
  5 10  1  0  0  0  0
  5  9  1  0  0  0  0
  6 11  2  0  0  0  0
  7 12  1  0  0  0  0
  8 13  1  0  0  0  0
  8 14  1  6  0  0  0
 10 15  2  0  0  0  0
 10 16  1  0  0  0  0
 11 15  1  0  0  0  0
 12 17  1  1  0  0  0
 12 13  1  0  0  0  0
 13 18  1  6  0  0  0
 17 19  1  0  0  0  0
 19 20  1  0  0  0  0
 20 21  1  0  0  0  0
 20 22  2  0  0  0  0
 20 23  1  0  0  0  0
 21 24  1  0  0  0  0
 24 25  1  0  0  0  0
 24 26  2  0  0  0  0
 24 27  1  0  0  0  0
 25 28  1  0  0  0  0
 29 28  1  1  0  0  0
 29 30  1  0  0  0  0
 29 31  1  0  0  0  0
 30 32  1  0  0  0  0
 31 33  1  0  0  0  0
 31 34  1  6  0  0  0
 32 35  1  1  0  0  0
 32 33  1  0  0  0  0
 33 36  1  6  0  0  0
 35 37  1  0  0  0  0
 35 38  1  0  0  0  0
 37 39  2  0  0  0  0
 38 40  2  0  0  0  0
 39 41  1  0  0  0  0
 39 42  1  0  0  0  0
 40 41  1  0  0  0  0
 42 43  1  0  0  0  0
 42 44  2  0  0  0  0
M  END
>  <Mol_ID> (158)
5086

>  <Formula> (158)
C21H27N7Na2O14P2

>  <MolWeight> (158)
709.404642

>  <Cat> (158)
S6349

>  <Name> (158)
NADH, disodium salt hydrate

>  <Synonyms> (158)
N/A

>  <Target> (158)
Others

>  <Form> (158)
hydrate

>  <CAS> (158)
606-68-8

>  <URL> (158)
http://www.selleck.cn/products/nadh-disodium-salt-hydrate.html

$$$$

csChFnd80/01042310162D

  9  9  0  0  0  0  0  0  0  0999 V2000
    2.4253    1.4000    0.0000 C   0  0  0  0  0  0  0  0  0  0  0  0
    3.6431    2.1015    0.0000 C   0  0  0  0  0  0  0  0  0  0  0  0
    1.2211    2.0915    0.0000 N   0  0  0  0  0  0  0  0  0  0  0  0
    2.4253    0.0000    0.0000 N   0  0  0  0  0  0  0  0  0  0  0  0
    3.6431    3.4913    0.0000 C   0  0  0  0  0  0  0  0  0  0  0  0
    4.8744    1.4134    0.0000 C   0  0  0  0  0  0  0  0  0  0  0  0
    1.2211    3.4913    0.0000 C   0  0  0  0  0  0  0  0  0  0  0  0
    2.4253    4.1930    0.0000 N   0  0  0  0  0  0  0  0  0  0  0  0
    0.0000    4.2064    0.0000 O   0  0  0  0  0  0  0  0  0  0  0  0
  1  2  2  0  0  0  0
  1  3  1  0  0  0  0
  1  4  1  0  0  0  0
  2  5  1  0  0  0  0
  2  6  1  0  0  0  0
  3  7  1  0  0  0  0
  5  8  2  0  0  0  0
  7  9  2  0  0  0  0
  7  8  1  0  0  0  0
M  END
>  <Mol_ID> (159)
5104

>  <Formula> (159)
C5H7N3O

>  <MolWeight> (159)
125.12858

>  <Cat> (159)
S6021

>  <Name> (159)
5-Methylcytosine

>  <Synonyms> (159)
N/A

>  <Target> (159)
Others

>  <Form> (159)
free base

>  <CAS> (159)
554-01-8

>  <URL> (159)
http://www.selleck.cn/products/5-methylcytosine.html

$$$$

csChFnd80/01042310162D

 34 33  0  0  0  0  0  0  0  0999 V2000
   11.5564    5.6894    0.0000 N   0  0  0  0  0  0  0  0  0  0  0  0
   12.7029    4.8574    0.0000 C   0  0  0  0  0  0  0  0  0  0  0  0
   10.2224    5.2646    0.0000 C   0  0  2  0  0  0  0  0  0  0  0  0
   12.0037    7.0106    0.0000 C   0  0  0  0  0  0  0  0  0  0  0  0
   13.8425    5.6614    0.0000 C   0  0  0  0  0  0  0  0  0  0  0  0
   12.8429    3.4661    0.0000 N   0  0  0  0  0  0  0  0  0  0  0  0
    9.0629    6.1326    0.0000 O   0  0  0  0  0  0  0  0  0  0  0  0
    9.8030    3.9573    0.0000 C   0  0  1  0  0  0  0  0  0  0  0  0
   13.4231    7.0036    0.0000 N   0  0  0  0  0  0  0  0  0  0  0  0
   15.1290    5.1090    0.0000 C   0  0  0  0  0  0  0  0  0  0  0  0
   14.1361    2.9067    0.0000 C   0  0  0  0  0  0  0  0  0  0  0  0
    7.9364    5.2785    0.0000 C   0  0  1  0  0  0  0  0  0  0  0  0
    8.3769    3.9573    0.0000 C   0  0  1  0  0  0  0  0  0  0  0  0
   10.6267    2.8252    0.0000 O   0  0  0  0  0  0  0  0  0  0  0  0
   15.2617    3.7036    0.0000 N   0  0  0  0  0  0  0  0  0  0  0  0
   16.2605    5.9335    0.0000 O   0  0  0  0  0  0  0  0  0  0  0  0
    6.5995    5.6941    0.0000 C   0  0  0  0  0  0  0  0  0  0  0  0
    7.5571    2.8224    0.0000 O   0  0  0  0  0  0  0  0  0  0  0  0
    5.6095    4.7041    0.0000 O   0  0  0  0  0  0  0  0  0  0  0  0
    4.2572    5.0665    0.0000 P   0  0  3  0  0  0  0  0  0  0  0  0
    3.8949    3.7142    0.0000 O   0  0  0  0  0  0  0  0  0  0  0  0
    2.9049    5.4288    0.0000 O   0  0  0  0  0  0  0  0  0  0  0  0
    4.6196    6.4187    0.0000 O   0  5  0  0  0  0  0  0  0  0  0  0
    2.5426    3.3518    0.0000 P   0  0  3  0  0  0  0  0  0  0  0  0
    2.9049    1.9995    0.0000 O   0  0  0  0  0  0  0  0  0  0  0  0
    1.1903    2.9895    0.0000 O   0  0  0  0  0  0  0  0  0  0  0  0
    2.1802    4.7041    0.0000 O   0  5  0  0  0  0  0  0  0  0  0  0
    1.9150    1.0096    0.0000 P   0  0  3  0  0  0  0  0  0  0  0  0
    0.9250    1.9995    0.0000 O   0  0  0  0  0  0  0  0  0  0  0  0
    0.9250    0.0196    0.0000 O   0  0  0  0  0  0  0  0  0  0  0  0
    2.9049    0.0196    0.0000 O   0  5  0  0  0  0  0  0  0  0  0  0
    4.2292    0.0000    0.0000 Na  0  3  0  0  0  0  0  0  0  0  0  0
    0.0000    4.7396    0.0000 Na  0  3  0  0  0  0  0  0  0  0  0  0
    5.8333    6.4167    0.0000 Na  0  3  0  0  0  0  0  0  0  0  0  0
  1  2  1  0  0  0  0
  3  1  1  1  0  0  0
  1  4  1  0  0  0  0
  2  5  2  0  0  0  0
  2  6  1  0  0  0  0
  3  7  1  0  0  0  0
  3  8  1  0  0  0  0
  4  9  2  0  0  0  0
  5 10  1  0  0  0  0
  5  9  1  0  0  0  0
  6 11  2  0  0  0  0
  7 12  1  0  0  0  0
  8 13  1  0  0  0  0
  8 14  1  6  0  0  0
 10 15  1  0  0  0  0
 10 16  2  0  0  0  0
 11 15  1  0  0  0  0
 12 17  1  1  0  0  0
 12 13  1  0  0  0  0
 13 18  1  6  0  0  0
 17 19  1  0  0  0  0
 19 20  1  0  0  0  0
 20 21  1  0  0  0  0
 20 22  2  0  0  0  0
 20 23  1  0  0  0  0
 21 24  1  0  0  0  0
 24 25  1  0  0  0  0
 24 26  2  0  0  0  0
 24 27  1  0  0  0  0
 25 28  1  0  0  0  0
 28 29  1  0  0  0  0
 28 30  2  0  0  0  0
 28 31  1  0  0  0  0
M  END
>  <Mol_ID> (160)
5114

>  <Formula> (160)
C10H12N4Na3O14P3

>  <MolWeight> (160)
574.111273

>  <Cat> (160)
S6103

>  <Name> (160)
Inosine 5¡ä-triphosphate trisodium salt

>  <Synonyms> (160)
N/A

>  <Target> (160)
Others

>  <Form> (160)
trisodium salt

>  <CAS> (160)
35908-31-7

>  <URL> (160)
http://www.selleck.cn/products/inosine-5-triphosphate-trisodium-salt.html

$$$$

csChFnd80/01042310162D

 26 26  0  0  0  0  0  0  0  0999 V2000
    3.5473    3.3613    0.0000 C   0  0  0  0  0  0  0  0  0  0  0  0
    4.6760    4.1894    0.0000 N   0  0  0  0  0  0  0  0  0  0  0  0
    2.4109    4.1788    0.0000 C   0  0  0  0  0  0  0  0  0  0  0  0
    3.4076    1.9681    0.0000 N   0  0  0  0  0  0  0  0  0  0  0  0
    6.0095    3.7630    0.0000 C   0  0  2  0  0  0  0  0  0  0  0  0
    4.2372    5.5189    0.0000 C   0  0  0  0  0  0  0  0  0  0  0  0
    2.8371    5.5123    0.0000 N   0  0  0  0  0  0  0  0  0  0  0  0
    1.1381    3.6049    0.0000 C   0  0  0  0  0  0  0  0  0  0  0  0
    2.1276    1.3910    0.0000 C   0  0  0  0  0  0  0  0  0  0  0  0
    7.1378    4.5930    0.0000 O   0  0  0  0  0  0  0  0  0  0  0  0
    6.4452    2.4370    0.0000 C   0  0  1  0  0  0  0  0  0  0  0  0
    0.9982    2.2102    0.0000 N   0  0  0  0  0  0  0  0  0  0  0  0
    0.0000    4.4236    0.0000 O   0  0  0  0  0  0  0  0  0  0  0  0
    1.9881    0.0000    0.0000 N   0  0  0  0  0  0  0  0  0  0  0  0
    8.2744    3.7754    0.0000 C   0  0  1  0  0  0  0  0  0  0  0  0
    7.8496    2.4421    0.0000 C   0  0  1  0  0  0  0  0  0  0  0  0
    5.6277    1.3005    0.0000 O   0  0  0  0  0  0  0  0  0  0  0  0
    9.6038    4.2161    0.0000 C   0  0  0  0  0  0  0  0  0  0  0  0
    8.6779    1.3134    0.0000 O   0  0  0  0  0  0  0  0  0  0  0  0
   10.6009    3.2333    0.0000 O   0  0  0  0  0  0  0  0  0  0  0  0
   11.9505    3.6054    0.0000 P   0  0  0  0  0  0  0  0  0  0  0  0
   12.3226    2.2558    0.0000 O   0  0  0  0  0  0  0  0  0  0  0  0
   11.5784    4.9551    0.0000 O   0  5  0  0  0  0  0  0  0  0  0  0
   13.3002    3.9775    0.0000 O   0  5  0  0  0  0  0  0  0  0  0  0
   14.5733    3.9488    0.0000 Na  0  3  0  0  0  0  0  0  0  0  0  0
    9.4574    4.9638    0.0000 Na  0  3  0  0  0  0  0  0  0  0  0  0
  1  2  1  0  0  0  0
  1  3  2  0  0  0  0
  1  4  1  0  0  0  0
  5  2  1  6  0  0  0
  2  6  1  0  0  0  0
  3  7  1  0  0  0  0
  3  8  1  0  0  0  0
  4  9  1  0  0  0  0
  5 10  1  0  0  0  0
  5 11  1  0  0  0  0
  6  7  2  0  0  0  0
  8 12  1  0  0  0  0
  8 13  2  0  0  0  0
  9 14  1  0  0  0  0
  9 12  2  0  0  0  0
 10 15  1  0  0  0  0
 11 16  1  0  0  0  0
 11 17  1  1  0  0  0
 15 18  1  6  0  0  0
 15 16  1  0  0  0  0
 16 19  1  1  0  0  0
 18 20  1  0  0  0  0
 20 21  1  0  0  0  0
 21 22  2  0  0  0  0
 21 23  1  0  0  0  0
 21 24  1  0  0  0  0
M  END
>  <Mol_ID> (161)
5138

>  <Formula> (161)
C10H12N5Na2O8P

>  <MolWeight> (161)
407.184281

>  <Cat> (161)
S6306

>  <Name> (161)
Guanosine 5'-monophosphate disodium salt

>  <Synonyms> (161)
5'-Guanylic acid disodium salt, guanylic acid disodium salt, guanosine monophosphate disodium salt

>  <Target> (161)
Others

>  <Form> (161)
disodium salt

>  <CAS> (161)
5550-12-9

>  <URL> (161)
http://www.selleck.cn/products/guanosine-5-monophosphate-disodium-salt.html

$$$$

csChFnd80/01042310162D

 28 29  0  0  0  0  0  0  0  0999 V2000
    1.3235    0.0000    0.0000 R   0  0  0  0  0  0  0  0  0  0  0  0
    3.8623    4.0267    0.0000 C   0  0  0  0  0  0  0  0  0  0  0  0
    5.1937    3.5940    0.0000 C   0  0  2  0  0  0  0  0  0  0  0  0
    5.6278    2.2579    0.0000 C   0  0  1  0  0  0  0  0  0  0  0  0
    4.8048    1.1253    0.0000 O   0  0  0  0  0  0  0  0  0  0  0  0
    7.0326    2.2579    0.0000 C   0  0  1  0  0  0  0  0  0  0  0  0
    7.8554    1.1252    0.0000 O   0  0  0  0  0  0  0  0  0  0  0  0
    7.4667    3.5939    0.0000 C   0  0  1  0  0  0  0  0  0  0  0  0
    6.3303    4.4195    0.0000 O   0  0  0  0  0  0  0  0  0  0  0  0
    8.7982    4.0265    0.0000 N   0  0  0  0  0  0  0  0  0  0  0  0
    9.9346    3.2008    0.0000 C   0  0  0  0  0  0  0  0  0  0  0  0
   11.0711    4.0264    0.0000 N   0  0  0  0  0  0  0  0  0  0  0  0
   10.6348    5.3643    0.0000 C   0  0  0  0  0  0  0  0  0  0  0  0
   11.3422    6.5897    0.0000 C   0  0  0  0  0  0  0  0  0  0  0  0
   12.7397    6.5897    0.0000 N   0  0  0  0  0  0  0  0  0  0  0  0
   10.6435    7.8000    0.0000 N   0  0  0  0  0  0  0  0  0  0  0  0
    9.2326    7.8000    0.0000 C   0  0  0  0  0  0  0  0  0  0  0  0
    8.5284    6.5804    0.0000 N   0  0  0  0  0  0  0  0  0  0  0  0
    9.2318    5.3621    0.0000 C   0  0  0  0  0  0  0  0  0  0  0  0
    1.4673    3.6473    0.0000 P   0  0  3  0  0  0  0  0  0  0  0  0
    0.1603    4.1490    0.0000 O   0  0  0  0  0  0  0  0  0  0  0  0
    2.7743    3.1456    0.0000 O   0  0  0  0  0  0  0  0  0  0  0  0
    0.9656    2.3403    0.0000 O   0  0  0  0  0  0  0  0  0  0  0  0
    1.9690    4.9543    0.0000 O   0  0  0  0  0  0  0  0  0  0  0  0
    1.0880    6.0423    0.0000 P   0  0  0  0  0  0  0  0  0  0  0  0
    2.1760    6.9233    0.0000 O   0  0  0  0  0  0  0  0  0  0  0  0
    0.2070    7.1303    0.0000 O   0  0  0  0  0  0  0  0  0  0  0  0
    0.0000    5.1613    0.0000 O   0  0  0  0  0  0  0  0  0  0  0  0
  3  2  1  1  0  0  0
  3  4  1  0  0  0  0
  4  5  1  6  0  0  0
  4  6  1  0  0  0  0
  6  7  1  6  0  0  0
  6  8  1  0  0  0  0
  8  9  1  0  0  0  0
  3  9  1  0  0  0  0
  8 10  1  1  0  0  0
 10 11  1  0  0  0  0
 11 12  2  0  0  0  0
 12 13  1  0  0  0  0
 13 14  1  0  0  0  0
 14 15  1  0  0  0  0
 14 16  2  0  0  0  0
 16 17  1  0  0  0  0
 17 18  2  0  0  0  0
 18 19  1  0  0  0  0
 13 19  2  0  0  0  0
 10 19  1  0  0  0  0
 20 21  2  0  0  0  0
 20 22  1  0  0  0  0
 20 23  1  0  0  0  0
 20 24  1  0  0  0  0
 24 25  1  0  0  0  0
 25 26  2  0  0  0  0
 25 27  1  0  0  0  0
 25 28  1  0  0  0  0
  2 22  1  0  0  0  0
A    1
?xNa?
M  END
>  <Mol_ID> (162)
5142

>  <Formula> (162)
C10H15N5O10P2R

>  <MolWeight> (162)
427.201122

>  <Cat> (162)
S6325

>  <Name> (162)
Adenosine 5¡ä-diphosphate sodium salt

>  <Synonyms> (162)
Adenosine diphosphate sodium salt, ADP sodium salt, Adenosine 5¡ä-pyrophosphate sodium salt, adenosin

>  <Target> (162)
Others

>  <Form> (162)
sodium salt

>  <CAS> (162)
20398-34-9

>  <URL> (162)
http://www.selleck.cn/products/adenosine-5-diphosphate-sodium-salt.html

$$$$

csChFnd80/01042310162D

 37 39  0  0  0  0  0  0  0  0999 V2000
   12.4280    6.3145    0.0000 C   0  0  0  0  0  0  0  0  0  0  0  0
   11.7280    5.1020    0.0000 N   0  0  0  0  0  0  0  0  0  0  0  0
   11.7336    7.5171    0.0000 C   0  0  0  0  0  0  0  0  0  0  0  0
   13.8256    6.3145    0.0000 N   0  0  0  0  0  0  0  0  0  0  0  0
   12.4272    3.8909    0.0000 C   0  0  0  0  0  0  0  0  0  0  0  0
   10.3273    5.1020    0.0000 C   0  0  0  0  0  0  0  0  0  0  0  0
   12.4280    8.7198    0.0000 C   0  0  0  0  0  0  0  0  0  0  0  0
   10.3279    7.5171    0.0000 N   0  0  0  0  0  0  0  0  0  0  0  0
   14.5242    7.5246    0.0000 C   0  0  0  0  0  0  0  0  0  0  0  0
   11.7265    2.6773    0.0000 C   0  0  0  0  0  0  0  0  0  0  0  0
    9.6296    3.8937    0.0000 C   0  0  0  0  0  0  0  0  0  0  0  0
   13.8192    8.7198    0.0000 C   0  0  0  0  0  0  0  0  0  0  0  0
    9.6307    8.7247    0.0000 C   0  0  0  0  0  0  0  0  0  0  0  0
   10.3210    2.6773    0.0000 N   0  0  0  0  0  0  0  0  0  0  0  0
   10.3293    9.9347    0.0000 C   0  0  0  0  0  0  0  0  0  0  0  0
    8.2279    8.7247    0.0000 C   0  0  0  0  0  0  0  0  0  0  0  0
    9.6211    1.4650    0.0000 C   0  0  0  0  0  0  0  0  0  0  0  0
    8.2191    1.4650    0.0000 C   0  0  0  0  0  0  0  0  0  0  0  0
   10.3201    0.2542    0.0000 O   0  0  0  0  0  0  0  0  0  0  0  0
    7.3980    2.5998    0.0000 C   0  0  0  0  0  0  0  0  0  0  0  0
    7.3909    0.3292    0.0000 N   0  0  0  0  0  0  0  0  0  0  0  0
    6.0673    2.1768    0.0000 C   0  0  0  0  0  0  0  0  0  0  0  0
    6.0673    0.7628    0.0000 C   0  0  0  0  0  0  0  0  0  0  0  0
    4.8500    2.8796    0.0000 C   0  0  0  0  0  0  0  0  0  0  0  0
    4.8345    0.0511    0.0000 C   0  0  0  0  0  0  0  0  0  0  0  0
    3.6349    2.1780    0.0000 C   0  0  0  0  0  0  0  0  0  0  0  0
    3.6049    0.7610    0.0000 C   0  0  0  0  0  0  0  0  0  0  0  0
    2.4153    2.8822    0.0000 N   0  0  0  0  0  0  0  0  0  0  0  0
    1.2124    2.1877    0.0000 S   0  0  0  0  0  0  0  0  0  0  0  0
    0.0000    1.4877    0.0000 C   0  0  0  0  0  0  0  0  0  0  0  0
    1.9093    0.9808    0.0000 O   0  0  0  0  0  0  0  0  0  0  0  0
    0.5093    3.4057    0.0000 O   0  0  0  0  0  0  0  0  0  0  0  0
   16.1372    1.4000    0.0000 S   0  0  0  0  0  0  0  0  0  0  0  0
   16.1372    0.0000    0.0000 C   0  0  0  0  0  0  0  0  0  0  0  0
   16.1372    2.8000    0.0000 O   0  0  0  0  0  0  0  0  0  0  0  0
   17.5372    1.4000    0.0000 O   0  0  0  0  0  0  0  0  0  0  0  0
   14.7372    1.4000    0.0000 O   0  0  0  0  0  0  0  0  0  0  0  0
  1  2  1  0  0  0  0
  1  3  1  0  0  0  0
  1  4  2  0  0  0  0
  2  5  1  0  0  0  0
  2  6  1  0  0  0  0
  3  7  2  0  0  0  0
  3  8  1  0  0  0  0
  4  9  1  0  0  0  0
  5 10  1  0  0  0  0
  6 11  1  0  0  0  0
  7 12  1  0  0  0  0
  8 13  1  0  0  0  0
  9 12  2  0  0  0  0
 10 14  1  0  0  0  0
 11 14  1  0  0  0  0
 13 15  1  0  0  0  0
 13 16  1  0  0  0  0
 14 17  1  0  0  0  0
 17 18  1  0  0  0  0
 17 19  2  0  0  0  0
 18 20  2  0  0  0  0
 18 21  1  0  0  0  0
 20 22  1  0  0  0  0
 21 23  1  0  0  0  0
 22 24  1  0  0  0  0
 22 23  2  0  0  0  0
 23 25  1  0  0  0  0
 24 26  2  0  0  0  0
 25 27  2  0  0  0  0
 26 28  1  0  0  0  0
 26 27  1  0  0  0  0
 28 29  1  0  0  0  0
 29 30  1  0  0  0  0
 29 31  2  0  0  0  0
 29 32  2  0  0  0  0
 33 34  1  0  0  0  0
 33 35  1  0  0  0  0
 33 36  2  0  0  0  0
 33 37  2  0  0  0  0
M  END
>  <Mol_ID> (163)
5245

>  <Formula> (163)
C23H32N6O6S2

>  <MolWeight> (163)
552.66678

>  <Cat> (163)
S6452

>  <Name> (163)
Delavirdine (mesylate)

>  <Synonyms> (163)
N/A

>  <Target> (163)
Reverse Transcriptas

>  <Form> (163)
mesylate

>  <CAS> (163)
147221-93-0

>  <URL> (163)
http://www.selleck.cn/products/delavirdine.html

$$$$

csChFnd80/01042310162D

 50 52  0  0  0  0  0  0  0  0999 V2000
    6.0084    4.4790    0.0000 C   0  0  1  0  0  0  0  0  0  0  0  0
    4.6962    4.8412    0.0000 N   0  0  0  0  0  0  0  0  0  0  0  0
    7.0942    5.3386    0.0000 C   0  0  1  0  0  0  0  0  0  0  0  0
    6.4970    3.1850    0.0000 O   0  0  0  0  0  0  0  0  0  0  0  0
    3.5743    3.9996    0.0000 C   0  0  0  0  0  0  0  0  0  0  0  0
    4.2166    6.1801    0.0000 C   0  0  0  0  0  0  0  0  0  0  0  0
    8.2975    4.5876    0.0000 C   0  0  1  0  0  0  0  0  0  0  0  0
    7.0580    6.7502    0.0000 O   0  0  0  0  0  0  0  0  0  0  0  0
    7.8814    3.2485    0.0000 C   0  0  1  0  0  0  0  0  0  0  0  0
    2.4159    4.7414    0.0000 C   0  0  0  0  0  0  0  0  0  0  0  0
    3.4929    2.5878    0.0000 N   0  0  0  0  0  0  0  0  0  0  0  0
    2.8232    6.1350    0.0000 N   0  0  0  0  0  0  0  0  0  0  0  0
    9.5915    5.0674    0.0000 O   0  0  0  0  0  0  0  0  0  0  0  0
    8.2251    7.5284    0.0000 P   0  0  3  0  0  0  0  0  0  0  0  0
    8.7591    2.1627    0.0000 C   0  0  0  0  0  0  0  0  0  0  0  0
    1.1582    4.1533    0.0000 C   0  0  0  0  0  0  0  0  0  0  0  0
    2.2352    1.9728    0.0000 C   0  0  0  0  0  0  0  0  0  0  0  0
    9.5552    8.0532    0.0000 O   0  0  0  0  0  0  0  0  0  0  0  0
    8.8586    6.2344    0.0000 O   0  0  0  0  0  0  0  0  0  0  0  0
    7.8271    8.8224    0.0000 O   0  5  0  0  0  0  0  0  0  0  0  0
   10.1344    2.3889    0.0000 O   0  0  0  0  0  0  0  0  0  0  0  0
    1.0858    2.7689    0.0000 N   0  0  0  0  0  0  0  0  0  0  0  0
    0.0000    4.9406    0.0000 N   0  0  0  0  0  0  0  0  0  0  0  0
   11.0211    1.3120    0.0000 P   0  0  3  0  0  0  0  0  0  0  0  0
   12.2970    1.8730    0.0000 O   0  0  0  0  0  0  0  0  0  0  0  0
   11.7088    0.0816    0.0000 O   0  0  0  0  0  0  0  0  0  0  0  0
    9.8812    0.5159    0.0000 O   0  5  0  0  0  0  0  0  0  0  0  0
   13.4101    1.0588    0.0000 P   0  0  3  0  0  0  0  0  0  0  0  0
   14.4958    1.9455    0.0000 O   0  0  0  0  0  0  0  0  0  0  0  0
   12.4872    0.0000    0.0000 O   0  0  0  0  0  0  0  0  0  0  0  0
   14.3781    0.0543    0.0000 O   0  5  0  0  0  0  0  0  0  0  0  0
   15.8080    1.4479    0.0000 C   0  0  0  0  0  0  0  0  0  0  0  0
   16.8938    2.3346    0.0000 C   0  0  1  0  0  0  0  0  0  0  0  0
   16.8121    3.7279    0.0000 O   0  0  0  0  0  0  0  0  0  0  0  0
   18.2509    1.9728    0.0000 C   0  0  2  0  0  0  0  0  0  0  0  0
   18.1153    4.2438    0.0000 C   0  0  2  0  0  0  0  0  0  0  0  0
   18.9930    3.1489    0.0000 C   0  0  2  0  0  0  0  0  0  0  0  0
   18.7486    0.6697    0.0000 O   0  0  0  0  0  0  0  0  0  0  0  0
   18.4771    5.6011    0.0000 N   0  3  0  0  0  0  0  0  0  0  0  0
   20.3864    3.2305    0.0000 O   0  0  0  0  0  0  0  0  0  0  0  0
   19.8346    5.9269    0.0000 C   0  0  0  0  0  0  0  0  0  0  0  0
   17.4730    6.5421    0.0000 C   0  0  0  0  0  0  0  0  0  0  0  0
   20.1782    7.2841    0.0000 C   0  0  0  0  0  0  0  0  0  0  0  0
   17.8436    7.8994    0.0000 C   0  0  0  0  0  0  0  0  0  0  0  0
   19.1919    8.2885    0.0000 C   0  0  0  0  0  0  0  0  0  0  0  0
   21.5355    7.6460    0.0000 C   0  0  0  0  0  0  0  0  0  0  0  0
   22.5218    6.6599    0.0000 N   0  0  0  0  0  0  0  0  0  0  0  0
   21.8795    9.0033    0.0000 O   0  0  0  0  0  0  0  0  0  0  0  0
    7.6163    0.4840    0.0000 Na  0  3  0  0  0  0  0  0  0  0  0  0
   15.6371    0.0698    0.0000 Na  0  3  0  0  0  0  0  0  0  0  0  0
  1  2  1  1  0  0  0
  1  3  1  0  0  0  0
  1  4  1  0  0  0  0
  2  5  1  0  0  0  0
  2  6  1  0  0  0  0
  3  7  1  0  0  0  0
  3  8  1  6  0  0  0
  4  9  1  0  0  0  0
  5 10  2  0  0  0  0
  5 11  1  0  0  0  0
  6 12  2  0  0  0  0
  7 13  1  6  0  0  0
  7  9  1  0  0  0  0
  8 14  1  0  0  0  0
  9 15  1  1  0  0  0
 10 16  1  0  0  0  0
 10 12  1  0  0  0  0
 11 17  2  0  0  0  0
 14 18  1  0  0  0  0
 14 19  2  0  0  0  0
 14 20  1  0  0  0  0
 15 21  1  0  0  0  0
 16 22  2  0  0  0  0
 16 23  1  0  0  0  0
 17 22  1  0  0  0  0
 21 24  1  0  0  0  0
 24 25  1  0  0  0  0
 24 26  2  0  0  0  0
 24 27  1  0  0  0  0
 25 28  1  0  0  0  0
 28 29  1  0  0  0  0
 28 30  2  0  0  0  0
 28 31  1  0  0  0  0
 29 32  1  0  0  0  0
 33 32  1  1  0  0  0
 33 34  1  0  0  0  0
 33 35  1  0  0  0  0
 34 36  1  0  0  0  0
 35 37  1  0  0  0  0
 35 38  1  6  0  0  0
 36 39  1  1  0  0  0
 36 37  1  0  0  0  0
 37 40  1  6  0  0  0
 39 41  2  0  0  0  0
 39 42  1  0  0  0  0
 41 43  1  0  0  0  0
 42 44  2  0  0  0  0
 43 45  2  0  0  0  0
 43 46  1  0  0  0  0
 44 45  1  0  0  0  0
 46 47  1  0  0  0  0
 46 48  2  0  0  0  0
M  END
>  <Mol_ID> (164)
5268

>  <Formula> (164)
C21H26N7Na2O17P3

>  <MolWeight> (164)
787.368663

>  <Cat> (164)
S6480

>  <Name> (164)
Triphosphopyridine nucleotide disodium salt

>  <Synonyms> (164)
NADP disodium salt

>  <Target> (164)
Others

>  <Form> (164)
disodium salt

>  <CAS> (164)
24292-60-2

>  <URL> (164)
http://www.selleck.cn/products/triphosphopyridine-nucleotide-disodium-salt.html

$$$$

csChFnd80/01042310162D

 26 27  0  0  0  0  0  0  0  0999 V2000
    4.8497    2.8000    0.0000 C   0  0  2  0  0  0  0  0  0  0  0  0
    4.9961    4.1923    0.0000 C   0  0  1  0  0  0  0  0  0  0  0  0
    3.6373    2.1000    0.0000 N   0  0  0  0  0  0  0  0  0  0  0  0
    6.1287    2.2306    0.0000 O   0  0  0  0  0  0  0  0  0  0  0  0
    6.3655    4.4834    0.0000 C   0  0  1  0  0  0  0  0  0  0  0  0
    3.9557    5.1291    0.0000 O   0  0  0  0  0  0  0  0  0  0  0  0
    2.4249    2.8000    0.0000 C   0  0  0  0  0  0  0  0  0  0  0  0
    3.6373    0.7000    0.0000 C   0  0  0  0  0  0  0  0  0  0  0  0
    7.0655    3.2710    0.0000 C   0  0  1  0  0  0  0  0  0  0  0  0
    6.9349    5.7624    0.0000 O   0  0  0  0  0  0  0  0  0  0  0  0
    4.2468    6.4985    0.0000 C   0  0  0  0  0  0  0  0  0  0  0  0
    1.2124    2.1000    0.0000 N   0  0  0  0  0  0  0  0  0  0  0  0
    2.4249    4.2000    0.0000 O   0  0  0  0  0  0  0  0  0  0  0  0
    2.4249    0.0000    0.0000 C   0  0  0  0  0  0  0  0  0  0  0  0
    8.4578    3.1246    0.0000 C   0  0  0  0  0  0  0  0  0  0  0  0
    8.3273    5.9087    0.0000 C   0  0  0  0  0  0  0  0  0  0  0  0
    5.5782    6.9311    0.0000 C   0  0  0  0  0  0  0  0  0  0  0  0
    3.1588    7.3796    0.0000 O   0  0  0  0  0  0  0  0  0  0  0  0
    1.2124    0.7000    0.0000 C   0  0  0  0  0  0  0  0  0  0  0  0
    9.0273    1.8457    0.0000 O   0  0  0  0  0  0  0  0  0  0  0  0
    9.1502    4.7761    0.0000 C   0  0  0  0  0  0  0  0  0  0  0  0
    8.8967    7.1877    0.0000 O   0  0  0  0  0  0  0  0  0  0  0  0
    0.0000    0.0000    0.0000 O   0  0  0  0  0  0  0  0  0  0  0  0
   10.4196    1.6993    0.0000 C   0  0  0  0  0  0  0  0  0  0  0  0
   11.0552    0.4519    0.0000 C   0  0  0  0  0  0  0  0  0  0  0  0
   11.2425    2.8320    0.0000 O   0  0  0  0  0  0  0  0  0  0  0  0
  1  2  1  0  0  0  0
  1  3  1  1  0  0  0
  1  4  1  0  0  0  0
  2  5  1  0  0  0  0
  2  6  1  6  0  0  0
  3  7  1  0  0  0  0
  3  8  1  0  0  0  0
  4  9  1  0  0  0  0
  5 10  1  6  0  0  0
  5  9  1  0  0  0  0
  6 11  1  0  0  0  0
  7 12  1  0  0  0  0
  7 13  2  0  0  0  0
  8 14  2  0  0  0  0
  9 15  1  1  0  0  0
 10 16  1  0  0  0  0
 11 17  1  0  0  0  0
 11 18  2  0  0  0  0
 12 19  1  0  0  0  0
 14 19  1  0  0  0  0
 15 20  1  0  0  0  0
 16 21  1  0  0  0  0
 16 22  2  0  0  0  0
 19 23  2  0  0  0  0
 20 24  1  0  0  0  0
 24 25  1  0  0  0  0
 24 26  2  0  0  0  0
M  END
>  <Mol_ID> (165)
6532

>  <Formula> (165)
C15H18N2O9

>  <MolWeight> (165)
370.31142

>  <Cat> (165)
S6484

>  <Name> (165)
uridine triacetate

>  <Synonyms> (165)
vistonuridine, PN401

>  <Target> (165)
Others

>  <Form> (165)
triacetate

>  <CAS> (165)
4105-38-8

>  <URL> (165)
http://www.selleck.cn/products/uridine-triacetate.html

$$$$

csChFnd80/01042310162D

 29 31  0  0  0  0  0  0  0  0999 V2000
   12.0884    0.7000    0.0000 C   0  0  0  0  0  0  0  0  0  0  0  0
   10.8760    1.4000    0.0000 C   0  0  0  0  0  0  0  0  0  0  0  0
    9.6633    0.6999    0.0000 C   0  0  0  0  0  0  0  0  0  0  0  0
    8.4548    1.3976    0.0000 C   0  0  0  0  0  0  0  0  0  0  0  0
    8.4548    2.7907    0.0000 C   0  0  0  0  0  0  0  0  0  0  0  0
    9.6712    3.4930    0.0000 C   0  0  0  0  0  0  0  0  0  0  0  0
   10.8765    2.7972    0.0000 C   0  0  0  0  0  0  0  0  0  0  0  0
   13.3009    0.0000    0.0000 N   0  0  0  0  0  0  0  0  0  0  0  0
    9.6712    4.8950    0.0000 O   0  0  0  0  0  0  0  0  0  0  0  0
    7.2452    4.8953    0.0000 C   0  0  0  0  0  0  0  0  0  0  0  0
    8.4580    5.5954    0.0000 C   0  0  0  0  0  0  0  0  0  0  0  0
    8.4580    6.9950    0.0000 C   0  0  0  0  0  0  0  0  0  0  0  0
    7.2453    7.6952    0.0000 C   0  0  0  0  0  0  0  0  0  0  0  0
    6.0327    6.9950    0.0000 C   0  0  0  0  0  0  0  0  0  0  0  0
    6.0327    5.5948    0.0000 N   0  0  0  0  0  0  0  0  0  0  0  0
    9.6702    7.6949    0.0000 C   0  0  0  0  0  0  0  0  0  0  0  0
    8.9701    8.9075    0.0000 F   0  0  0  0  0  0  0  0  0  0  0  0
   10.3701    6.4826    0.0000 F   0  0  0  0  0  0  0  0  0  0  0  0
   10.8826    8.3949    0.0000 F   0  0  0  0  0  0  0  0  0  0  0  0
    7.2452    3.4950    0.0000 O   0  0  0  0  0  0  0  0  0  0  0  0
    4.8204    4.8950    0.0000 C   0  0  0  0  0  0  0  0  0  0  0  0
    2.0923    7.2782    0.0000 N   0  0  0  0  0  0  0  0  0  0  0  0
    3.4618    6.9870    0.0000 N   0  0  0  0  0  0  0  0  0  0  0  0
    3.6082    5.5948    0.0000 C   0  0  0  0  0  0  0  0  0  0  0  0
    2.3293    5.0253    0.0000 N   0  0  0  0  0  0  0  0  0  0  0  0
    1.3923    6.0657    0.0000 C   0  0  0  0  0  0  0  0  0  0  0  0
    0.0000    5.9193    0.0000 O   0  0  0  0  0  0  0  0  0  0  0  0
    2.0382    3.6559    0.0000 C   0  0  0  0  0  0  0  0  0  0  0  0
    7.2340    0.6928    0.0000 Cl  0  0  0  0  0  0  0  0  0  0  0  0
  1  2  1  0  0  0  0
  2  3  1  0  0  0  0
  3  4  2  0  0  0  0
  4  5  1  0  0  0  0
  5  6  2  0  0  0  0
  6  7  1  0  0  0  0
  2  7  2  0  0  0  0
  1  8  3  0  0  0  0
 10 11  1  0  0  0  0
 11 12  2  0  0  0  0
 12 13  1  0  0  0  0
 13 14  2  0  0  0  0
 14 15  1  0  0  0  0
 10 15  1  0  0  0  0
 16 17  1  0  0  0  0
 16 18  1  0  0  0  0
 16 19  1  0  0  0  0
 12 16  1  0  0  0  0
 10 20  2  0  0  0  0
 22 23  1  0  0  0  0
 23 24  2  0  0  0  0
 24 25  1  0  0  0  0
 25 26  1  0  0  0  0
 22 26  1  0  0  0  0
 26 27  2  0  0  0  0
 25 28  1  0  0  0  0
 21 24  1  0  0  0  0
 15 21  1  0  0  0  0
  9 11  1  0  0  0  0
  6  9  1  0  0  0  0
  4 29  1  0  0  0  0
M  END
>  <Mol_ID> (166)
6535

>  <Formula> (166)
C17H11ClF3N5O3

>  <MolWeight> (166)
425.7491496

>  <Cat> (166)
S6492

>  <Name> (166)
Doravirine (MK-1439)

>  <Synonyms> (166)
N/A

>  <Target> (166)
Reverse Transcriptas

>  <Form> (166)
free base

>  <CAS> (166)
1338225-97-0

>  <URL> (166)
http://www.selleck.cn/products/doravirine-mk-1439.html

$$$$

csChFnd80/01042310162D

 53 52  0  0  0  0  0  0  0  0999 V2000
    8.1734    1.9877    0.0000 P   0  0  3  0  0  0  0  0  0  0  0  0
   15.4099    2.7317    0.0000 P   0  0  3  0  0  0  0  0  0  0  0  0
   10.5856    2.2357    0.0000 P   0  0  3  0  0  0  0  0  0  0  0  0
   12.9977    2.4837    0.0000 P   0  0  3  0  0  0  0  0  0  0  0  0
   15.9846    0.2188    0.0000 Na  0  3  0  0  0  0  0  0  0  0  0  0
    8.5835    4.5208    0.0000 Na  0  3  0  0  0  0  0  0  0  0  0  0
   13.3596    4.9583    0.0000 Na  0  3  0  0  0  0  0  0  0  0  0  0
   10.9169    0.0000    0.0000 Na  0  3  0  0  0  0  0  0  0  0  0  0
    4.1974    3.6812    0.0000 O   0  0  0  0  0  0  0  0  0  0  0  0
   20.2870    3.3644    0.0000 O   0  0  0  0  0  0  0  0  0  0  0  0
    3.1206    0.2216    0.0000 O   0  0  0  0  0  0  0  0  0  0  0  0
   17.8276    6.0256    0.0000 O   0  0  0  0  0  0  0  0  0  0  0  0
    0.8620    2.2673    0.0000 O   0  0  0  0  0  0  0  0  0  0  0  0
   20.7244    6.9619    0.0000 O   0  0  0  0  0  0  0  0  0  0  0  0
    6.8957    2.5601    0.0000 O   0  0  0  0  0  0  0  0  0  0  0  0
   16.5444    3.5520    0.0000 O   0  0  0  0  0  0  0  0  0  0  0  0
    4.2046    6.2538    0.0000 O   0  0  0  0  0  0  0  0  0  0  0  0
   22.5114    2.0797    0.0000 O   0  0  0  0  0  0  0  0  0  0  0  0
    9.4511    1.4154    0.0000 O   0  0  0  0  0  0  0  0  0  0  0  0
   14.2754    1.9114    0.0000 O   0  0  0  0  0  0  0  0  0  0  0  0
    8.7457    3.2654    0.0000 O   0  5  0  0  0  0  0  0  0  0  0  0
   16.2302    1.5972    0.0000 O   0  5  0  0  0  0  0  0  0  0  0  0
    7.6011    0.7101    0.0000 O   0  0  0  0  0  0  0  0  0  0  0  0
   14.5896    3.8662    0.0000 O   0  0  0  0  0  0  0  0  0  0  0  0
    0.0054    8.6806    0.0000 O   0  0  0  0  0  0  0  0  0  0  0  0
   26.7150    4.5086    0.0000 O   0  0  0  0  0  0  0  0  0  0  0  0
   11.7201    3.0560    0.0000 O   0  0  0  0  0  0  0  0  0  0  0  0
   11.4059    1.1012    0.0000 O   0  5  0  0  0  0  0  0  0  0  0  0
   13.5701    3.7614    0.0000 O   0  5  0  0  0  0  0  0  0  0  0  0
    9.7652    3.3702    0.0000 O   0  0  0  0  0  0  0  0  0  0  0  0
   12.4254    1.2060    0.0000 O   0  0  0  0  0  0  0  0  0  0  0  0
    2.1023    5.0427    0.0000 N   0  0  0  0  0  0  0  0  0  0  0  0
   22.5117    4.5035    0.0000 N   0  0  0  0  0  0  0  0  0  0  0  0
    2.1074    7.4656    0.0000 N   0  0  0  0  0  0  0  0  0  0  0  0
   24.6099    3.2896    0.0000 N   0  0  0  0  0  0  0  0  0  0  0  0
    3.2703    1.6136    0.0000 C   0  0  1  0  0  0  0  0  0  0  0  0
   18.9582    5.2000    0.0000 C   0  0  1  0  0  0  0  0  0  0  0  0
    2.2321    2.5551    0.0000 C   0  0  2  0  0  0  0  0  0  0  0  0
   20.2903    5.6309    0.0000 C   0  0  2  0  0  0  0  0  0  0  0  0
    4.4836    2.3121    0.0000 C   0  0  1  0  0  0  0  0  0  0  0  0
   18.9565    3.8000    0.0000 C   0  0  1  0  0  0  0  0  0  0  0  0
    2.8023    3.8302    0.0000 C   0  0  1  0  0  0  0  0  0  0  0  0
   21.1117    4.5035    0.0000 C   0  0  1  0  0  0  0  0  0  0  0  0
    5.7612    1.7398    0.0000 C   0  0  0  0  0  0  0  0  0  0  0  0
   17.8220    2.9796    0.0000 C   0  0  0  0  0  0  0  0  0  0  0  0
    2.8046    6.2538    0.0000 C   0  0  0  0  0  0  0  0  0  0  0  0
   23.2114    3.2921    0.0000 C   0  0  0  0  0  0  0  0  0  0  0  0
    0.6991    5.0448    0.0000 C   0  0  0  0  0  0  0  0  0  0  0  0
   23.2158    5.7196    0.0000 C   0  0  0  0  0  0  0  0  0  0  0  0
    0.0000    6.2590    0.0000 C   0  0  0  0  0  0  0  0  0  0  0  0
   24.6138    5.7180    0.0000 C   0  0  0  0  0  0  0  0  0  0  0  0
    0.7054    7.4682    0.0000 C   0  0  0  0  0  0  0  0  0  0  0  0
   25.3150    4.5086    0.0000 C   0  0  0  0  0  0  0  0  0  0  0  0
  1 15  1  0  0  0  0
  1 19  1  0  0  0  0
  1 21  1  0  0  0  0
  1 23  2  0  0  0  0
  2 16  1  0  0  0  0
  2 20  1  0  0  0  0
  2 22  1  0  0  0  0
  2 24  2  0  0  0  0
  3 19  1  0  0  0  0
  3 27  1  0  0  0  0
  3 28  1  0  0  0  0
  3 30  2  0  0  0  0
  4 20  1  0  0  0  0
  4 27  1  0  0  0  0
  4 29  1  0  0  0  0
  4 31  2  0  0  0  0
  9 40  1  0  0  0  0
  9 42  1  0  0  0  0
 10 41  1  0  0  0  0
 10 43  1  0  0  0  0
 36 11  1  1  0  0  0
 37 12  1  1  0  0  0
 38 13  1  1  0  0  0
 39 14  1  1  0  0  0
 15 44  1  0  0  0  0
 16 45  1  0  0  0  0
 17 46  2  0  0  0  0
 18 47  2  0  0  0  0
 25 52  2  0  0  0  0
 26 53  2  0  0  0  0
 42 32  1  6  0  0  0
 32 46  1  0  0  0  0
 32 48  1  0  0  0  0
 43 33  1  6  0  0  0
 33 47  1  0  0  0  0
 33 49  1  0  0  0  0
 34 46  1  0  0  0  0
 34 52  1  0  0  0  0
 35 47  1  0  0  0  0
 35 53  1  0  0  0  0
 36 38  1  0  0  0  0
 36 40  1  0  0  0  0
 37 39  1  0  0  0  0
 37 41  1  0  0  0  0
 38 42  1  0  0  0  0
 39 43  1  0  0  0  0
 40 44  1  6  0  0  0
 41 45  1  6  0  0  0
 48 50  2  0  0  0  0
 49 51  2  0  0  0  0
 50 52  1  0  0  0  0
 51 53  1  0  0  0  0
M  END
>  <Mol_ID> (167)
6597

>  <Formula> (167)
C18H22N4Na4O23P4

>  <MolWeight> (167)
878.234404

>  <Cat> (167)
S6592

>  <Name> (167)
Diquafosol Tetrasodium

>  <Synonyms> (167)
INS-365

>  <Target> (167)
P2 Receptor

>  <Form> (167)
Tetrasodium

>  <CAS> (167)
211427-08-6

>  <URL> (167)
http://www.selleck.cn/products/diquafosol-tetrasodium.html

$$$$

csChFnd80/01042310162D

 20 22  0  0  0  0  0  0  0  0999 V2000
    5.5456    2.5325    0.0000 N   0  0  0  0  0  0  0  0  0  0  0  0
    6.8771    2.1003    0.0000 C   0  0  0  0  0  0  0  0  0  0  0  0
    8.0896    2.8003    0.0000 N   0  0  0  0  0  0  0  0  0  0  0  0
    5.5461    0.2673    0.0000 N   0  0  0  0  0  0  0  0  0  0  0  0
    6.8771    0.7002    0.0000 C   0  0  0  0  0  0  0  0  0  0  0  0
    1.2958    1.3743    0.0000 P   0  0  0  0  0  0  0  0  0  0  0  0
    4.7230    1.3997    0.0000 C   0  0  0  0  0  0  0  0  0  0  0  0
    9.3019    2.1003    0.0000 C   0  0  0  0  0  0  0  0  0  0  0  0
    3.7432    4.1546    0.0000 C   0  0  0  0  0  0  0  0  0  0  0  0
    9.3019    0.7007    0.0000 N   0  0  0  0  0  0  0  0  0  0  0  0
    5.1127    3.8639    0.0000 C   0  0  0  0  0  0  0  0  0  0  0  0
    1.8259    2.6701    0.0000 C   0  0  0  0  0  0  0  0  0  0  0  0
    2.5391    4.9149    0.0000 C   0  0  0  0  0  0  0  0  0  0  0  0
    3.7849    5.5416    0.0000 C   0  0  0  0  0  0  0  0  0  0  0  0
    8.0898    0.0000    0.0000 C   0  0  0  0  0  0  0  0  0  0  0  0
    0.7656    0.0786    0.0000 O   0  0  0  0  0  0  0  0  0  0  0  0
    3.2131    2.8589    0.0000 O   0  0  0  0  0  0  0  0  0  0  0  0
    0.0000    1.9045    0.0000 O   0  0  0  0  0  0  0  0  0  0  0  0
    2.5915    0.8442    0.0000 O   0  0  0  0  0  0  0  0  0  0  0  0
   10.5143    2.8003    0.0000 N   0  0  0  0  0  0  0  0  0  0  0  0
  2  1  1  0  0  0  0
  7  1  1  0  0  0  0
 11  1  1  0  0  0  0
  3  2  2  0  0  0  0
  5  2  1  0  0  0  0
  8  3  1  0  0  0  0
  4  7  2  0  0  0  0
  5  4  1  0  0  0  0
 15  5  2  0  0  0  0
  6 12  1  0  0  0  0
 16  6  2  0  0  0  0
 18  6  1  0  0  0  0
 19  6  1  0  0  0  0
 10  8  2  0  0  0  0
 20  8  1  0  0  0  0
  9 11  1  0  0  0  0
 13  9  1  0  0  0  0
 14  9  1  0  0  0  0
 17  9  1  0  0  0  0
 10 15  1  0  0  0  0
 12 17  1  0  0  0  0
 13 14  1  0  0  0  0
M  END
>  <Mol_ID> (168)
6698

>  <Formula> (168)
C10H14N5O4P

>  <MolWeight> (168)
299.223021

>  <Cat> (168)
S6729

>  <Name> (168)
Besifovir

>  <Synonyms> (168)
N/A

>  <Target> (168)
Anti-infection

>  <Form> (168)
Free Base

>  <CAS> (168)
441785-25-7

>  <URL> (168)
http://www.selleck.cn/products/besifovir.html

$$$$

csChFnd80/01042310162D

 19 19  0  0  0  0  0  0  0  0999 V2000
    6.8543    2.7999    0.0000 C   0  0  0  0  0  0  0  0  0  0  0  0
    8.0698    2.0919    0.0000 C   0  0  0  0  0  0  0  0  0  0  0  0
    8.0644    0.6987    0.0000 C   0  0  0  0  0  0  0  0  0  0  0  0
    6.8512    0.0000    0.0000 C   0  0  0  0  0  0  0  0  0  0  0  0
    5.6395    0.7013    0.0000 C   0  0  0  0  0  0  0  0  0  0  0  0
    5.6414    2.1019    0.0000 N   0  3  0  0  0  0  0  0  0  0  0  0
    9.2914    2.7972    0.0000 C   0  0  0  0  0  0  0  0  0  0  0  0
    9.2914    4.1970    0.0000 O   0  0  0  0  0  0  0  0  0  0  0  0
   10.4948    2.1025    0.0000 N   0  0  0  0  0  0  0  0  0  0  0  0
    3.1498    2.2346    0.0000 O   0  0  0  0  0  0  0  0  0  0  0  0
    4.4289    2.8019    0.0000 C   0  0  2  0  0  0  0  0  0  0  0  0
    4.2845    4.1951    0.0000 C   0  0  1  0  0  0  0  0  0  0  0  0
    2.9154    4.4876    0.0000 C   0  0  1  0  0  0  0  0  0  0  0  0
    2.2142    3.2760    0.0000 C   0  0  1  0  0  0  0  0  0  0  0  0
    0.8217    3.1312    0.0000 C   0  0  0  0  0  0  0  0  0  0  0  0
    0.0000    4.2647    0.0000 O   0  0  0  0  0  0  0  0  0  0  0  0
    2.3474    5.7672    0.0000 O   0  0  0  0  0  0  0  0  0  0  0  0
    5.3259    5.1307    0.0000 O   0  0  0  0  0  0  0  0  0  0  0  0
    3.9623    0.8885    0.0000 Cl  0  5  0  0  0  0  0  0  0  0  0  0
  1  2  1  0  0  0  0
  2  3  2  0  0  0  0
  3  4  1  0  0  0  0
  4  5  2  0  0  0  0
  5  6  1  0  0  0  0
  1  6  2  0  0  0  0
  7  8  2  0  0  0  0
  7  9  1  0  0  0  0
  2  7  1  0  0  0  0
 10 11  1  0  0  0  0
 11 12  1  0  0  0  0
 12 13  1  0  0  0  0
 13 14  1  0  0  0  0
 10 14  1  0  0  0  0
 15 16  1  0  0  0  0
 14 15  1  6  0  0  0
 13 17  1  1  0  0  0
 12 18  1  1  0  0  0
 11  6  1  6  0  0  0
M  END
>  <Mol_ID> (169)
6761

>  <Formula> (169)
C11H15ClN2O5

>  <MolWeight> (169)
290.7002

>  <Cat> (169)
S2935

>  <Name> (169)
Nicotinamide Riboside Chloride

>  <Synonyms> (169)
N/A

>  <Target> (169)
Others

>  <Form> (169)
Chloride

>  <CAS> (169)
23111-00-4

>  <URL> (169)
http://www.selleck.cn/products/nicotinamide-riboside-chloride.html

$$$$

csChFnd80/01042310162D

 67 75  0  0  0  0  0  0  0  0999 V2000
   16.5560    9.9167    0.0000 C   0  0  2  0  0  0  0  0  0  0  0  0
   17.8895   10.3299    0.0000 C   0  0  2  0  0  0  0  0  0  0  0  0
   16.5560    8.4895    0.0000 C   0  0  2  0  0  0  0  0  0  0  0  0
   15.3446   10.6117    0.0000 C   0  0  0  0  0  0  0  0  0  0  0  0
   16.7155   11.2972    0.0000 C   0  0  0  0  0  0  0  0  0  0  0  0
   18.7345    9.1937    0.0000 C   0  0  2  0  0  0  0  0  0  0  0  0
   18.7345   11.5039    0.0000 C   0  0  1  0  0  0  0  0  0  0  0  0
   15.3446    7.7945    0.0000 C   0  0  1  0  0  0  0  0  0  0  0  0
   17.8895    8.0760    0.0000 C   0  0  0  0  0  0  0  0  0  0  0  0
   14.1238    9.9167    0.0000 C   0  0  0  0  0  0  0  0  0  0  0  0
   20.0682    9.6349    0.0000 O   0  0  0  0  0  0  0  0  0  0  0  0
   20.0682   11.0529    0.0000 C   0  0  2  0  0  0  0  0  0  0  0  0
   18.3027   12.8184    0.0000 C   0  0  0  0  0  0  0  0  0  0  0  0
   14.1238    8.4895    0.0000 C   0  0  2  0  0  0  0  0  0  0  0  0
   15.3446    6.3951    0.0000 C   0  0  0  0  0  0  0  0  0  0  0  0
   21.3548   10.4614    0.0000 C   0  0  0  0  0  0  0  0  0  0  0  0
   19.9271   12.4334    0.0000 N   0  0  0  0  0  0  0  0  0  0  0  0
   12.9124    7.7945    0.0000 C   0  0  2  0  0  0  0  0  0  0  0  0
   14.1238    5.7003    0.0000 C   0  0  0  0  0  0  0  0  0  0  0  0
   22.5004   11.2972    0.0000 C   0  0  0  0  0  0  0  0  0  0  0  0
   21.0727   13.2599    0.0000 C   0  0  0  0  0  0  0  0  0  0  0  0
   12.9124    6.3951    0.0000 C   0  0  0  0  0  0  0  0  0  0  0  0
   11.7104    8.4895    0.0000 C   0  0  0  0  0  0  0  0  0  0  0  0
   12.9124    9.1937    0.0000 C   0  0  0  0  0  0  0  0  0  0  0  0
   22.3501   12.6869    0.0000 C   0  0  2  0  0  0  0  0  0  0  0  0
   11.7104    5.7003    0.0000 C   0  0  0  0  0  0  0  0  0  0  0  0
   10.5082    7.7945    0.0000 C   0  0  0  0  0  0  0  0  0  0  0  0
   23.4863   13.5134    0.0000 C   0  0  0  0  0  0  0  0  0  0  0  0
   10.5082    6.3951    0.0000 C   0  0  2  0  0  0  0  0  0  0  0  0
    9.2873    5.7003    0.0000 O   0  0  0  0  0  0  0  0  0  0  0  0
    8.2545    6.6580    0.0000 C   0  0  1  0  0  0  0  0  0  0  0  0
    6.9211    6.1605    0.0000 C   0  0  1  0  0  0  0  0  0  0  0  0
    8.4800    7.9448    0.0000 O   0  0  0  0  0  0  0  0  0  0  0  0
    5.8881    7.0715    0.0000 C   0  0  1  0  0  0  0  0  0  0  0  0
    6.6956    4.8176    0.0000 O   0  0  0  0  0  0  0  0  0  0  0  0
    7.4375    8.9118    0.0000 C   0  0  1  0  0  0  0  0  0  0  0  0
    4.5169    6.6580    0.0000 O   0  0  0  0  0  0  0  0  0  0  0  0
    6.1230    8.4612    0.0000 C   0  0  2  0  0  0  0  0  0  0  0  0
    5.7659    3.6999    0.0000 C   0  0  1  0  0  0  0  0  0  0  0  0
    7.6721   10.2547    0.0000 C   0  0  0  0  0  0  0  0  0  0  0  0
    3.6624    7.7380    0.0000 C   0  0  2  0  0  0  0  0  0  0  0  0
    5.0804    9.8377    0.0000 O   0  0  0  0  0  0  0  0  0  0  0  0
    6.2541    2.3854    0.0000 C   0  0  1  0  0  0  0  0  0  0  0  0
    4.4138    3.9817    0.0000 O   0  0  0  0  0  0  0  0  0  0  0  0
    9.0527   10.4614    0.0000 O   0  0  0  0  0  0  0  0  0  0  0  0
    4.1789    9.0433    0.0000 O   0  0  0  0  0  0  0  0  0  0  0  0
    2.2539    7.4845    0.0000 C   0  0  1  0  0  0  0  0  0  0  0  0
    5.3434    1.2865    0.0000 C   0  0  1  0  0  0  0  0  0  0  0  0
    7.5690    2.1787    0.0000 O   0  0  0  0  0  0  0  0  0  0  0  0
    3.4841    2.9017    0.0000 C   0  0  2  0  0  0  0  0  0  0  0  0
    3.3149   10.0950    0.0000 C   0  0  1  0  0  0  0  0  0  0  0  0
    1.4085    8.5927    0.0000 C   0  0  2  0  0  0  0  0  0  0  0  0
    1.7372    6.1885    0.0000 O   0  0  0  0  0  0  0  0  0  0  0  0
    3.9159    1.5495    0.0000 C   0  0  2  0  0  0  0  0  0  0  0  0
    5.7846    0.0000    0.0000 O   0  0  0  0  0  0  0  0  0  0  0  0
    2.1315    3.1552    0.0000 C   0  0  0  0  0  0  0  0  0  0  0  0
    1.8689    9.9167    0.0000 C   0  0  2  0  0  0  0  0  0  0  0  0
    3.7939   11.4756    0.0000 C   0  0  0  0  0  0  0  0  0  0  0  0
    0.0000    8.3860    0.0000 O   0  0  0  0  0  0  0  0  0  0  0  0
    3.0614    0.4883    0.0000 O   0  0  0  0  0  0  0  0  0  0  0  0
    1.0424   11.0060    0.0000 O   0  0  0  0  0  0  0  0  0  0  0  0
    2.7514   12.3769    0.0000 O   0  0  0  0  0  0  0  0  0  0  0  0
   17.6265    9.0902    0.0000 H   0  0  0  0  0  0  0  0  0  0  0  0
   16.5840    6.9866    0.0000 H   0  0  0  0  0  0  0  0  0  0  0  0
   19.0445   10.4614    0.0000 H   0  0  0  0  0  0  0  0  0  0  0  0
   15.3726    9.2217    0.0000 H   0  0  0  0  0  0  0  0  0  0  0  0
   14.0674    6.9866    0.0000 H   0  0  0  0  0  0  0  0  0  0  0  0
  1  2  1  0  0  0  0
  1  3  1  0  0  0  0
  1  4  1  0  0  0  0
  1  5  1  1  0  0  0
  2  6  1  0  0  0  0
  2  7  1  0  0  0  0
  2 63  1  6  0  0  0
  3  8  1  0  0  0  0
  3  9  1  0  0  0  0
  3 64  1  6  0  0  0
  4 10  1  0  0  0  0
  6 11  1  0  0  0  0
  6  9  1  0  0  0  0
  6 65  1  6  0  0  0
  7 12  1  0  0  0  0
  7 13  1  6  0  0  0
  8 14  1  0  0  0  0
  8 15  1  0  0  0  0
  8 66  1  1  0  0  0
 10 14  1  0  0  0  0
 11 12  1  0  0  0  0
 12 16  1  1  0  0  0
 12 17  1  6  0  0  0
 14 18  1  0  0  0  0
 14 67  1  6  0  0  0
 15 19  1  0  0  0  0
 16 20  1  0  0  0  0
 17 21  1  0  0  0  0
 18 22  1  0  0  0  0
 18 23  1  0  0  0  0
 18 24  1  1  0  0  0
 19 22  2  0  0  0  0
 20 25  1  0  0  0  0
 21 25  1  0  0  0  0
 22 26  1  0  0  0  0
 23 27  1  0  0  0  0
 25 28  1  6  0  0  0
 26 29  1  0  0  0  0
 27 29  1  0  0  0  0
 29 30  1  1  0  0  0
 31 30  1  1  0  0  0
 31 32  1  0  0  0  0
 31 33  1  0  0  0  0
 32 34  1  0  0  0  0
 32 35  1  6  0  0  0
 33 36  1  0  0  0  0
 34 37  1  1  0  0  0
 34 38  1  0  0  0  0
 39 35  1  1  0  0  0
 36 40  1  1  0  0  0
 36 38  1  0  0  0  0
 41 37  1  1  0  0  0
 38 42  1  1  0  0  0
 39 43  1  0  0  0  0
 39 44  1  0  0  0  0
 40 45  1  0  0  0  0
 41 46  1  0  0  0  0
 41 47  1  0  0  0  0
 43 48  1  0  0  0  0
 43 49  1  6  0  0  0
 44 50  1  0  0  0  0
 46 51  1  0  0  0  0
 47 52  1  0  0  0  0
 47 53  1  6  0  0  0
 48 54  1  0  0  0  0
 48 55  1  6  0  0  0
 50 56  1  6  0  0  0
 50 54  1  0  0  0  0
 51 57  1  0  0  0  0
 51 58  1  1  0  0  0
 52 59  1  1  0  0  0
 52 57  1  0  0  0  0
 54 60  1  1  0  0  0
 57 61  1  6  0  0  0
 58 62  1  0  0  0  0
M  END
>  <Mol_ID> (170)
6807

>  <Formula> (170)
C45H73NO16

>  <MolWeight> (170)
884.05822

>  <Cat> (170)
S9144

>  <Name> (170)
Solasonine

>  <Synonyms> (170)
N/A

>  <Target> (170)
Immunology & Inflammation related

>  <Form> (170)
Free Base

>  <CAS> (170)
19121-58-5

>  <URL> (170)
http://www.selleck.cn/products/solasonine.html

$$$$

csChFnd80/01042310162D

 69 77  0  0  0  0  0  0  0  0999 V2000
    9.6341    6.3145    0.0000 C   0  0  1  0  0  0  0  0  0  0  0  0
    9.3087    1.9255    0.0000 C   0  0  2  0  0  0  0  0  0  0  0  0
    4.1550    6.4488    0.0000 C   0  0  2  0  0  0  0  0  0  0  0  0
   10.2571    7.2346    0.0000 C   0  0  2  0  0  0  0  0  0  0  0  0
    7.2981    7.2842    0.0000 C   0  0  2  0  0  0  0  0  0  0  0  0
    8.6220    0.9203    0.0000 C   0  0  1  0  0  0  0  0  0  0  0  0
    3.6314    5.3516    0.0000 C   0  0  1  0  0  0  0  0  0  0  0  0
    7.9564    6.3145    0.0000 C   0  0  2  0  0  0  0  0  0  0  0  0
    6.8665    0.9203    0.0000 C   0  0  1  0  0  0  0  0  0  0  0  0
    1.8830    5.3516    0.0000 C   0  0  1  0  0  0  0  0  0  0  0  0
   10.5191    5.4367    0.0000 O   0  0  0  0  0  0  0  0  0  0  0  0
    9.6413    8.2539    0.0000 O   0  0  0  0  0  0  0  0  0  0  0  0
    5.5497    7.2983    0.0000 O   0  0  0  0  0  0  0  0  0  0  0  0
    3.6314    7.3903    0.0000 O   0  0  0  0  0  0  0  0  0  0  0  0
    8.6220    2.9447    0.0000 O   0  0  0  0  0  0  0  0  0  0  0  0
    6.2788    1.9043    0.0000 C   0  0  2  0  0  0  0  0  0  0  0  0
    1.3239    6.4418    0.0000 C   0  0  2  0  0  0  0  0  0  0  0  0
    7.9282    8.2327    0.0000 C   0  0  2  0  0  0  0  0  0  0  0  0
    1.8830    7.3903    0.0000 C   0  0  2  0  0  0  0  0  0  0  0  0
    6.8665    2.9447    0.0000 C   0  0  2  0  0  0  0  0  0  0  0  0
    9.4431    0.0565    0.0000 O   0  0  0  0  0  0  0  0  0  0  0  0
    4.2756    4.4313    0.0000 O   0  0  0  0  0  0  0  0  0  0  0  0
    7.2981    5.1253    0.0000 O   0  0  0  0  0  0  0  0  0  0  0  0
    5.9603    0.0000    0.0000 O   0  0  0  0  0  0  0  0  0  0  0  0
    1.1609    4.1623    0.0000 O   0  0  0  0  0  0  0  0  0  0  0  0
    4.6435    1.9043    0.0000 O   0  0  0  0  0  0  0  0  0  0  0  0
    0.0000    6.3357    0.0000 O   0  0  0  0  0  0  0  0  0  0  0  0
    7.2981    9.3513    0.0000 C   0  0  0  0  0  0  0  0  0  0  0  0
    6.1372    9.3513    0.0000 O   0  0  0  0  0  0  0  0  0  0  0  0
    1.2670    8.3885    0.0000 C   0  0  0  0  0  0  0  0  0  0  0  0
    6.2293    3.8650    0.0000 C   0  0  0  0  0  0  0  0  0  0  0  0
   11.3655    6.6003    0.0000 H   0  0  0  0  0  0  0  0  0  0  0  0
    5.1108    5.5993    0.0000 H   0  0  0  0  0  0  0  0  0  0  0  0
   10.4506    1.0560    0.0000 H   0  0  0  0  0  0  0  0  0  0  0  0
   10.8377    8.7567    0.0000 O   0  0  0  0  0  0  0  0  0  0  0  0
   18.1359   12.9898    0.0000 C   0  0  1  0  0  0  0  0  0  0  0  0
   21.6329   14.1082    0.0000 C   0  0  1  0  0  0  0  0  0  0  0  0
   18.1359   11.5812    0.0000 C   0  0  2  0  0  0  0  0  0  0  0  0
   14.4905   10.8803    0.0000 C   0  0  1  0  0  0  0  0  0  0  0  0
   19.4668   13.4216    0.0000 C   0  0  2  0  0  0  0  0  0  0  0  0
   14.4905    9.4717    0.0000 C   0  0  0  0  0  0  0  0  0  0  0  0
   21.6259   12.7280    0.0000 O   0  0  0  0  0  0  0  0  0  0  0  0
   20.2881   12.2889    0.0000 C   0  0  1  0  0  0  0  0  0  0  0  0
   15.7009   11.5812    0.0000 C   0  0  2  0  0  0  0  0  0  0  0  0
   16.9183   10.8803    0.0000 C   0  0  1  0  0  0  0  0  0  0  0  0
   19.4668   11.1492    0.0000 C   0  0  0  0  0  0  0  0  0  0  0  0
   22.8545   13.4113    0.0000 N   0  0  0  0  0  0  0  0  0  0  0  0
   20.2951   14.5541    0.0000 C   0  0  2  0  0  0  0  0  0  0  0  0
   16.9114   13.6906    0.0000 C   0  0  0  0  0  0  0  0  0  0  0  0
   15.7009    8.7707    0.0000 C   0  0  0  0  0  0  0  0  0  0  0  0
   16.9183    9.4717    0.0000 C   0  0  0  0  0  0  0  0  0  0  0  0
   15.7009   12.9898    0.0000 C   0  0  0  0  0  0  0  0  0  0  0  0
   13.2800   11.5812    0.0000 C   0  0  0  0  0  0  0  0  0  0  0  0
   13.2800    8.7707    0.0000 C   0  0  0  0  0  0  0  0  0  0  0  0
   21.6216   15.5012    0.0000 C   0  0  0  0  0  0  0  0  0  0  0  0
   12.0622    9.4717    0.0000 C   0  0  2  0  0  0  0  0  0  0  0  0
   24.0606   14.1222    0.0000 C   0  0  0  0  0  0  0  0  0  0  0  0
   18.1288   14.3913    0.0000 C   0  0  0  0  0  0  0  0  0  0  0  0
   12.0622   10.8803    0.0000 C   0  0  0  0  0  0  0  0  0  0  0  0
   14.4905   12.2889    0.0000 C   0  0  0  0  0  0  0  0  0  0  0  0
   22.8360   16.2186    0.0000 C   0  0  0  0  0  0  0  0  0  0  0  0
   24.0369   15.5379    0.0000 C   0  0  1  0  0  0  0  0  0  0  0  0
   19.8633   15.9062    0.0000 C   0  0  0  0  0  0  0  0  0  0  0  0
   25.2129   16.2734    0.0000 C   0  0  0  0  0  0  0  0  0  0  0  0
   19.1695   12.0412    0.0000 H   0  0  0  0  0  0  0  0  0  0  0  0
   18.1359   10.1865    0.0000 H   0  0  0  0  0  0  0  0  0  0  0  0
   21.1233   11.1492    0.0000 H   0  0  0  0  0  0  0  0  0  0  0  0
   16.9183   12.2889    0.0000 H   0  0  0  0  0  0  0  0  0  0  0  0
   15.7009   10.1724    0.0000 H   0  0  0  0  0  0  0  0  0  0  0  0
  2 11  1  0  0  0  0
  2 34  1  6  0  0  0
  3 13  1  0  0  0  0
  4 35  1  0  0  0  0
  5 18  1  0  0  0  0
  6  2  1  0  0  0  0
  7  3  1  0  0  0  0
  8  1  1  0  0  0  0
  9  6  1  0  0  0  0
 10  7  1  0  0  0  0
  1 11  1  6  0  0  0
 12  4  1  0  0  0  0
  5 13  1  6  0  0  0
 14  3  1  0  0  0  0
 15  2  1  0  0  0  0
 16 20  1  0  0  0  0
 17 19  1  0  0  0  0
 18 12  1  0  0  0  0
 19 14  1  0  0  0  0
 20 15  1  0  0  0  0
  6 21  1  6  0  0  0
  7 22  1  6  0  0  0
  8 23  1  1  0  0  0
  9 24  1  6  0  0  0
 10 25  1  6  0  0  0
 16 26  1  1  0  0  0
 17 27  1  1  0  0  0
 18 28  1  1  0  0  0
 29 28  1  0  0  0  0
 19 30  1  6  0  0  0
 20 31  1  6  0  0  0
  5  8  1  0  0  0  0
 16  9  1  0  0  0  0
 17 10  1  0  0  0  0
  4 32  1  6  0  0  0
  1  4  1  0  0  0  0
  3 33  1  6  0  0  0
 37 48  1  0  0  0  0
 38 36  1  0  0  0  0
 39 44  1  0  0  0  0
 40 36  1  0  0  0  0
 41 39  1  0  0  0  0
 42 43  1  0  0  0  0
 43 40  1  0  0  0  0
 44 52  1  0  0  0  0
 45 38  1  0  0  0  0
 46 38  1  0  0  0  0
 37 47  1  6  0  0  0
 48 40  1  0  0  0  0
 49 36  1  0  0  0  0
 50 51  1  0  0  0  0
 51 45  1  0  0  0  0
 52 49  1  0  0  0  0
 56 35  1  1  0  0  0
 53 39  1  0  0  0  0
 54 41  1  0  0  0  0
 37 55  1  1  0  0  0
 56 59  1  0  0  0  0
 57 47  1  0  0  0  0
 36 58  1  1  0  0  0
 59 53  1  0  0  0  0
 39 60  1  1  0  0  0
 61 55  1  0  0  0  0
 62 57  1  0  0  0  0
 48 63  1  6  0  0  0
 62 64  1  1  0  0  0
 40 65  1  6  0  0  0
 38 66  1  6  0  0  0
 43 67  1  6  0  0  0
 45 68  1  1  0  0  0
 44 69  1  6  0  0  0
 46 43  1  0  0  0  0
 44 45  1  0  0  0  0
 37 42  1  0  0  0  0
 41 50  2  0  0  0  0
 62 61  1  0  0  0  0
 56 54  1  0  0  0  0
M  END
>  <Mol_ID> (171)
6808

>  <Formula> (171)
C45H73NO15

>  <MolWeight> (171)
868.05882

>  <Cat> (171)
S9145

>  <Name> (171)
Solamargine

>  <Synonyms> (171)
N/A

>  <Target> (171)
P-gp

>  <Form> (171)
Free Base

>  <CAS> (171)
20311-51-7

>  <URL> (171)
http://www.selleck.cn/products/solamargine.html

$$$$

csChFnd80/01042310162D

 17 18  0  0  0  0  0  0  0  0999 V2000
    4.4355    2.9559    0.0000 C   0  0  2  0  0  0  0  0  0  0  0  0
    5.6501    3.6522    0.0000 N   0  0  0  0  0  0  0  0  0  0  0  0
    3.1583    3.5293    0.0000 O   0  0  0  0  0  0  0  0  0  0  0  0
    4.2848    1.5640    0.0000 C   0  0  0  0  0  0  0  0  0  0  0  0
    5.6544    5.0522    0.0000 C   0  0  0  0  0  0  0  0  0  0  0  0
    6.8603    2.9484    0.0000 C   0  0  0  0  0  0  0  0  0  0  0  0
    2.2183    2.4918    0.0000 C   0  0  1  0  0  0  0  0  0  0  0  0
    2.9145    1.2772    0.0000 C   0  0  1  0  0  0  0  0  0  0  0  0
    6.8690    5.7484    0.0000 N   0  0  0  0  0  0  0  0  0  0  0  0
    4.4441    5.7559    0.0000 O   0  0  0  0  0  0  0  0  0  0  0  0
    8.0749    3.6447    0.0000 C   0  0  0  0  0  0  0  0  0  0  0  0
    0.8264    2.6424    0.0000 C   0  0  0  0  0  0  0  0  0  0  0  0
    2.3411    0.0000    0.0000 O   0  0  0  0  0  0  0  0  0  0  0  0
    8.0792    5.0447    0.0000 C   0  0  0  0  0  0  0  0  0  0  0  0
    9.2852    2.9409    0.0000 F   0  0  0  0  0  0  0  0  0  0  0  0
    0.0000    1.5124    0.0000 O   0  0  0  0  0  0  0  0  0  0  0  0
    9.2938    5.7409    0.0000 N   0  0  0  0  0  0  0  0  0  0  0  0
  1  2  1  1  0  0  0
  1  3  1  0  0  0  0
  1  4  1  0  0  0  0
  2  5  1  0  0  0  0
  2  6  1  0  0  0  0
  3  7  1  0  0  0  0
  4  8  1  0  0  0  0
  5  9  1  0  0  0  0
  5 10  2  0  0  0  0
  6 11  2  0  0  0  0
  7 12  1  1  0  0  0
  7  8  1  0  0  0  0
  8 13  1  6  0  0  0
  9 14  2  0  0  0  0
 11 15  1  0  0  0  0
 11 14  1  0  0  0  0
 12 16  1  0  0  0  0
 14 17  1  0  0  0  0
M  END
>  <Mol_ID> (172)
6840

>  <Formula> (172)
C9H12FN3O4

>  <MolWeight> (172)
245.2076832

>  <Cat> (172)
S2477

>  <Name> (172)
2'-Deoxy-5-Fluorocytidine

>  <Synonyms> (172)
5-fluoro-2(')-deoxycytidine, FCdR

>  <Target> (172)
DNA Methyltransferas

>  <Form> (172)
Free Base

>  <CAS> (172)
10356-76-0

>  <URL> (172)
http://www.selleckchem.com/products/2-feoxy-5-fluorocytidine.html

$$$$

csChFnd80/01042310162D

 23 24  0  0  0  0  0  0  0  0999 V2000
    6.6100    1.8989    0.0000 C   0  0  1  0  0  0  0  0  0  0  0  0
    7.9817    2.1920    0.0000 C   0  0  2  0  0  0  0  0  0  0  0  0
    8.1282    3.5843    0.0000 C   0  0  1  0  0  0  0  0  0  0  0  0
    6.8456    4.1554    0.0000 O   0  0  0  0  0  0  0  0  0  0  0  0
    5.9090    3.1131    0.0000 C   0  0  2  0  0  0  0  0  0  0  0  0
    4.5187    3.2575    0.0000 C   0  0  0  0  0  0  0  0  0  0  0  0
    3.6394    2.1717    0.0000 O   0  0  0  0  0  0  0  0  0  0  0  0
    2.2593    2.3903    0.0000 C   0  0  0  0  0  0  0  0  0  0  0  0
    1.3800    1.3044    0.0000 C   0  0  0  0  0  0  0  0  0  0  0  0
    1.7586    3.6947    0.0000 O   0  0  0  0  0  0  0  0  0  0  0  0
    6.0435    0.6222    0.0000 O   0  0  0  0  0  0  0  0  0  0  0  0
    9.0205    1.2576    0.0000 O   0  0  0  0  0  0  0  0  0  0  0  0
    9.3382    4.2830    0.0000 N   0  0  0  0  0  0  0  0  0  0  0  0
   10.5840    3.5637    0.0000 C   0  0  0  0  0  0  0  0  0  0  0  0
   11.8474    4.2931    0.0000 C   0  0  0  0  0  0  0  0  0  0  0  0
   11.8474    5.7539    0.0000 C   0  0  0  0  0  0  0  0  0  0  0  0
   10.6018    6.4730    0.0000 N   0  0  0  0  0  0  0  0  0  0  0  0
    9.3382    5.8308    0.0000 C   0  0  0  0  0  0  0  0  0  0  0  0
    8.1406    6.5222    0.0000 O   0  0  0  0  0  0  0  0  0  0  0  0
   13.0597    6.4539    0.0000 N   0  0  0  0  0  0  0  0  0  0  0  0
   14.2903    5.7434    0.0000 O   0  0  0  0  0  0  0  0  0  0  0  0
    1.8807    0.0000    0.0000 C   0  0  0  0  0  0  0  0  0  0  0  0
    0.0000    1.5230    0.0000 C   0  0  0  0  0  0  0  0  0  0  0  0
  1  2  1  0  0  0  0
  2  3  1  0  0  0  0
  3  4  1  0  0  0  0
  4  5  1  0  0  0  0
  5  1  1  0  0  0  0
  5  6  1  1  0  0  0
  6  7  1  0  0  0  0
  7  8  1  0  0  0  0
  8  9  1  0  0  0  0
  8 10  2  0  0  0  0
  1 11  1  6  0  0  0
  2 12  1  6  0  0  0
  3 13  1  1  0  0  0
 13 14  1  0  0  0  0
 14 15  2  0  0  0  0
 15 16  1  0  0  0  0
 16 17  1  0  0  0  0
 17 18  1  0  0  0  0
 18 13  1  0  0  0  0
 18 19  2  0  0  0  0
 16 20  2  0  0  0  0
 20 21  1  0  0  0  0
  9 22  1  0  0  0  0
  9 23  1  0  0  0  0
M  END
>  <Mol_ID> (173)
6858

>  <Formula> (173)
C13H19N3O7

>  <MolWeight> (173)
329.30586

>  <Cat> (173)
S8969

>  <Name> (173)
EIDD-2801

>  <Synonyms> (173)
N/A

>  <Target> (173)
Anti-infection

>  <Form> (173)
Free Base

>  <CAS> (173)
2349386-89-4

>  <URL> (173)
http://www.selleckchem.com/products/eidd-2801.html

$$$$

csChFnd80/01042310162D

 21 23  0  0  0  0  0  0  0  0999 V2000
    3.5015    3.2887    0.0000 O   0  0  0  0  0  0  0  0  0  0  0  0
    5.0277    0.0031    0.0000 O   0  0  0  0  0  0  0  0  0  0  0  0
    1.9819    0.0000    0.0000 O   0  0  0  0  0  0  0  0  0  0  0  0
    0.0000    1.9559    0.0000 O   0  0  0  0  0  0  0  0  0  0  0  0
    4.7653    4.9505    0.0000 N   0  0  0  0  0  0  0  0  0  0  0  0
    3.4341    5.3841    0.0000 N   0  0  0  0  0  0  0  0  0  0  0  0
    7.1862    1.3132    0.0000 N   0  0  0  0  0  0  0  0  0  0  0  0
    4.1852    7.6898    0.0000 N   0  0  0  0  0  0  0  0  0  0  0  0
    6.5549    8.1951    0.0000 N   0  0  0  0  0  0  0  0  0  0  0  0
    4.6350    2.4668    0.0000 C   0  0  2  0  0  0  0  0  0  0  0  0
    4.2037    1.1349    0.0000 C   0  0  1  0  0  0  0  0  0  0  0  0
    2.8037    1.1335    0.0000 C   0  0  1  0  0  0  0  0  0  0  0  0
    2.3716    2.4708    0.0000 C   0  0  1  0  0  0  0  0  0  0  0  0
    5.3338    3.6800    0.0000 C   0  0  0  0  0  0  0  0  0  0  0  0
    1.0359    2.8977    0.0000 C   0  0  0  0  0  0  0  0  0  0  0  0
    6.7179    3.8257    0.0000 C   0  0  0  0  0  0  0  0  0  0  0  0
    5.9145    1.8987    0.0000 C   0  0  0  0  0  0  0  0  0  0  0  0
    5.8065    5.8866    0.0000 C   0  0  0  0  0  0  0  0  0  0  0  0
    7.0095    5.1865    0.0000 C   0  0  0  0  0  0  0  0  0  0  0  0
    5.5190    7.2533    0.0000 C   0  0  0  0  0  0  0  0  0  0  0  0
    3.1441    6.7538    0.0000 C   0  0  0  0  0  0  0  0  0  0  0  0
  1 10  1  0  0  0  0
  1 13  1  0  0  0  0
 11  2  1  6  0  0  0
 12  3  1  6  0  0  0
  4 15  1  0  0  0  0
  5  6  1  0  0  0  0
  5 14  1  0  0  0  0
  5 18  1  0  0  0  0
  6 21  2  0  0  0  0
  7 17  3  0  0  0  0
  8 20  2  0  0  0  0
  8 21  1  0  0  0  0
  9 20  1  0  0  0  0
 10 11  1  0  0  0  0
 10 14  1  1  0  0  0
 10 17  1  6  0  0  0
 11 12  1  0  0  0  0
 12 13  1  0  0  0  0
 13 15  1  1  0  0  0
 14 16  2  0  0  0  0
 16 19  1  0  0  0  0
 18 19  2  0  0  0  0
 18 20  1  0  0  0  0
M  END
>  <Mol_ID> (174)
6896

>  <Formula> (174)
C12H13N5O4

>  <MolWeight> (174)
291.26272

>  <Cat> (174)
S6814

>  <Name> (174)
GS-441524

>  <Synonyms> (174)
N/A

>  <Target> (174)
Anti-infection

>  <Form> (174)
Free Base

>  <CAS> (174)
1191237-69-0

>  <URL> (174)
http://www.selleckchem.com/products/gs-441524.html

$$$$

csChFnd80/01042310162D

 17 18  0  0  0  0  0  0  0  0999 V2000
    4.8497    2.8028    0.0000 C   0  0  2  0  0  0  0  0  0  0  0  0
    3.6377    2.1021    0.0000 N   0  0  0  0  0  0  0  0  0  0  0  0
    6.1290    2.2341    0.0000 O   0  0  0  0  0  0  0  0  0  0  0  0
    4.9953    4.1952    0.0000 C   0  0  0  0  0  0  0  0  0  0  0  0
    3.6385    0.7021    0.0000 C   0  0  0  0  0  0  0  0  0  0  0  0
    2.4249    2.8014    0.0000 C   0  0  0  0  0  0  0  0  0  0  0  0
    7.0652    3.2751    0.0000 C   0  0  1  0  0  0  0  0  0  0  0  0
    6.3645    4.4871    0.0000 C   0  0  1  0  0  0  0  0  0  0  0  0
    2.4265    0.0014    0.0000 N   0  0  0  0  0  0  0  0  0  0  0  0
    4.8514    0.0028    0.0000 O   0  0  0  0  0  0  0  0  0  0  0  0
    1.2128    2.1007    0.0000 C   0  0  0  0  0  0  0  0  0  0  0  0
    8.4576    3.1295    0.0000 C   0  0  0  0  0  0  0  0  0  0  0  0
    6.9332    5.7664    0.0000 F   0  0  0  0  0  0  0  0  0  0  0  0
    1.2137    0.7007    0.0000 C   0  0  0  0  0  0  0  0  0  0  0  0
    0.0000    2.8000    0.0000 C   0  0  0  0  0  0  0  0  0  0  0  0
    9.2799    4.2626    0.0000 O   0  0  0  0  0  0  0  0  0  0  0  0
    0.0016    0.0000    0.0000 O   0  0  0  0  0  0  0  0  0  0  0  0
  1  2  1  1  0  0  0
  1  3  1  0  0  0  0
  1  4  1  0  0  0  0
  2  5  1  0  0  0  0
  2  6  1  0  0  0  0
  3  7  1  0  0  0  0
  4  8  1  0  0  0  0
  5  9  1  0  0  0  0
  5 10  2  0  0  0  0
  6 11  2  0  0  0  0
  7 12  1  1  0  0  0
  7  8  1  0  0  0  0
  8 13  1  6  0  0  0
  9 14  1  0  0  0  0
 11 15  1  0  0  0  0
 11 14  1  0  0  0  0
 12 16  1  0  0  0  0
 14 17  2  0  0  0  0
M  END
>  <Mol_ID> (175)
6972

>  <Formula> (175)
C10H13FN2O4

>  <MolWeight> (175)
244.2196232

>  <Cat> (175)
S6848

>  <Name> (175)
3'-Fluoro-3'-deoxythymidine (Alovudine)

>  <Synonyms> (175)
CL 184824, FddThd, FLT, MIV-310

>  <Target> (175)
Reverse Transcriptas

>  <Form> (175)
Free Base

>  <CAS> (175)
25526-93-6

>  <URL> (175)
http://www.selleckchem.com/products/3-fluoro-3-deoxythymidine.html

$$$$

csChFnd80/01042310162D

 25 28  0  0  0  0  0  0  0  0999 V2000
    5.5072    9.9966    0.0000 C   0  0  0  0  0  0  0  0  0  0  0  0
    5.5072    8.5966    0.0000 C   0  0  0  0  0  0  0  0  0  0  0  0
    6.7196    7.8966    0.0000 N   0  0  0  0  0  0  0  0  0  0  0  0
    7.9320    8.5966    0.0000 C   0  0  0  0  0  0  0  0  0  0  0  0
    7.9320    9.9966    0.0000 N   0  0  0  0  0  0  0  0  0  0  0  0
    6.7196   10.6966    0.0000 C   0  0  0  0  0  0  0  0  0  0  0  0
    4.1757   10.4292    0.0000 C   0  0  0  0  0  0  0  0  0  0  0  0
    3.3528    9.2966    0.0000 C   0  0  0  0  0  0  0  0  0  0  0  0
    4.1757    8.1640    0.0000 N   0  0  0  0  0  0  0  0  0  0  0  0
    3.7431    6.8325    0.0000 C   0  0  2  0  0  0  0  0  0  0  0  0
    2.4116    6.3999    0.0000 O   0  0  0  0  0  0  0  0  0  0  0  0
    2.4116    4.9999    0.0000 C   0  0  1  0  0  0  0  0  0  0  0  0
    3.7431    4.5673    0.0000 C   0  0  2  0  0  0  0  0  0  0  0  0
    4.5660    5.6999    0.0000 C   0  0  1  0  0  0  0  0  0  0  0  0
    1.2790    4.1770    0.0000 C   0  0  2  0  0  0  0  0  0  0  0  0
    0.0000    4.7464    0.0000 O   0  0  0  0  0  0  0  0  0  0  0  0
    1.4253    2.7847    0.0000 C   0  0  0  0  0  0  0  0  0  0  0  0
    0.2927    1.9618    0.0000 C   0  0  0  0  0  0  0  0  0  0  0  0
    0.4390    0.5694    0.0000 C   0  0  0  0  0  0  0  0  0  0  0  0
    1.7180    0.0000    0.0000 C   0  0  0  0  0  0  0  0  0  0  0  0
    2.8506    0.8229    0.0000 C   0  0  0  0  0  0  0  0  0  0  0  0
    2.7043    2.2152    0.0000 C   0  0  0  0  0  0  0  0  0  0  0  0
    4.1757    3.2358    0.0000 O   0  0  0  0  0  0  0  0  0  0  0  0
    5.9660    5.6999    0.0000 O   0  0  0  0  0  0  0  0  0  0  0  0
    6.7196   12.0966    0.0000 N   0  0  0  0  0  0  0  0  0  0  0  0
  1  2  2  0  0  0  0
  2  3  1  0  0  0  0
  3  4  2  0  0  0  0
  4  5  1  0  0  0  0
  5  6  2  0  0  0  0
  6  1  1  0  0  0  0
  1  7  1  0  0  0  0
  7  8  2  0  0  0  0
  8  9  1  0  0  0  0
  9  2  1  0  0  0  0
 10  9  1  1  0  0  0
 10 11  1  0  0  0  0
 11 12  1  0  0  0  0
 12 13  1  0  0  0  0
 13 14  1  0  0  0  0
 14 10  1  0  0  0  0
 12 15  1  1  0  0  0
 15 16  1  1  0  0  0
 15 17  1  0  0  0  0
 17 18  2  0  0  0  0
 18 19  1  0  0  0  0
 19 20  2  0  0  0  0
 20 21  1  0  0  0  0
 21 22  2  0  0  0  0
 22 17  1  0  0  0  0
 13 23  1  6  0  0  0
 14 24  1  6  0  0  0
  6 25  1  0  0  0  0
M  END
>  <Mol_ID> (176)
6984

>  <Formula> (176)
C17H18N4O4

>  <MolWeight> (176)
342.34922

>  <Cat> (176)
S8883

>  <Name> (176)
LLY-283

>  <Synonyms> (176)
N/A

>  <Target> (176)
PRMT

>  <Form> (176)
Free Base

>  <CAS> (176)
2040291-27-6

>  <URL> (176)
http://www.selleckchem.com/products/lly-283.html

$$$$

csChFnd80/01042310162D

 20 21  0  0  0  0  0  0  0  0999 V2000
    5.5168    3.1672    0.0000 O   0  0  0  0  0  0  0  0  0  0  0  0
    1.9636    2.4611    0.0000 O   0  0  0  0  0  0  0  0  0  0  0  0
    3.7582    0.0000    0.0000 O   0  0  0  0  0  0  0  0  0  0  0  0
    7.9313    1.5179    0.0000 O   0  0  0  0  0  0  0  0  0  0  0  0
    3.7496    4.9283    0.0000 N   0  0  0  0  0  0  0  0  0  0  0  0
    3.7496    7.1816    0.0000 N   0  0  0  0  0  0  0  0  0  0  0  0
    0.0000    6.7549    0.0000 N   0  0  0  0  0  0  0  0  0  0  0  0
    1.2125    8.8549    0.0000 N   0  0  0  0  0  0  0  0  0  0  0  0
    3.3636    2.4634    0.0000 C   0  0  1  0  0  0  0  0  0  0  0  0
    4.1846    3.5976    0.0000 C   0  0  1  0  0  0  0  0  0  0  0  0
    4.1885    1.3322    0.0000 C   0  0  1  0  0  0  0  0  0  0  0  0
    5.5192    1.7672    0.0000 C   0  0  1  0  0  0  0  0  0  0  0  0
    6.6532    0.9463    0.0000 C   0  0  0  0  0  0  0  0  0  0  0  0
    2.4249    5.3549    0.0000 C   0  0  0  0  0  0  0  0  0  0  0  0
    4.5667    6.0549    0.0000 C   0  0  0  0  0  0  0  0  0  0  0  0
    2.4249    6.7549    0.0000 C   0  0  0  0  0  0  0  0  0  0  0  0
    1.2125    4.6549    0.0000 C   0  0  0  0  0  0  0  0  0  0  0  0
    1.2125    7.4549    0.0000 C   0  0  0  0  0  0  0  0  0  0  0  0
    0.0000    5.3549    0.0000 C   0  0  0  0  0  0  0  0  0  0  0  0
    7.3300    4.9788    0.0000 Cl  0  0  0  0  0  0  0  0  0  0  0  0
  1 10  1  0  0  0  0
  1 12  1  0  0  0  0
  9  2  1  1  0  0  0
 11  3  1  1  0  0  0
  4 13  1  0  0  0  0
 10  5  1  6  0  0  0
  5 14  1  0  0  0  0
  5 15  1  0  0  0  0
  6 15  2  0  0  0  0
  6 16  1  0  0  0  0
  7 18  2  0  0  0  0
  7 19  1  0  0  0  0
  8 18  1  0  0  0  0
  9 10  1  0  0  0  0
  9 11  1  0  0  0  0
 11 12  1  0  0  0  0
 12 13  1  6  0  0  0
 14 16  2  0  0  0  0
 14 17  1  0  0  0  0
 16 18  1  0  0  0  0
 17 19  2  0  0  0  0
M  END
>  <Mol_ID> (177)
7056

>  <Formula> (177)
C11H15ClN4O4

>  <MolWeight> (177)
302.7142

>  <Cat> (177)
S0787

>  <Name> (177)
3-Deazaadenosine hydrochloride

>  <Target> (177)
TNF-alpha

>  <Form> (177)
hydrochloride

>  <CAS> (177)
86583-19-9

>  <URL> (177)
http://www.selleckchem.com/products/3-deazaadenosine-hydrochloride.html

$$$$

csChFnd80/01042310162D

 38 40  0  0  0  0  0  0  0  0999 V2000
    1.3951    2.4595    0.0000 C   0  0  0  0  0  0  0  0  0  0  0  0
    2.0951    1.2470    0.0000 N   0  0  0  0  0  0  0  0  0  0  0  0
    3.4951    1.2470    0.0000 C   0  0  0  0  0  0  0  0  0  0  0  0
    4.1951    2.4595    0.0000 N   0  0  0  0  0  0  0  0  0  0  0  0
    3.4951    3.6719    0.0000 C   0  0  0  0  0  0  0  0  0  0  0  0
    2.0951    3.6719    0.0000 C   0  0  0  0  0  0  0  0  0  0  0  0
    0.0000    2.4595    0.0000 O   0  0  0  0  0  0  0  0  0  0  0  0
    4.1927    0.0388    0.0000 O   0  0  0  0  0  0  0  0  0  0  0  0
    5.5903    2.4595    0.0000 C   0  0  1  0  0  0  0  0  0  0  0  0
    6.4132    1.3269    0.0000 C   0  0  1  0  0  0  0  0  0  0  0  0
    7.7447    1.7595    0.0000 C   0  0  1  0  0  0  0  0  0  0  0  0
    7.7447    3.1595    0.0000 C   0  0  2  0  0  0  0  0  0  0  0  0
    6.4132    3.5921    0.0000 O   0  0  0  0  0  0  0  0  0  0  0  0
    5.9821    0.0000    0.0000 O   0  0  0  0  0  0  0  0  0  0  0  0
    8.8734    0.9394    0.0000 O   0  0  0  0  0  0  0  0  0  0  0  0
    8.8734    3.9795    0.0000 C   0  0  0  0  0  0  0  0  0  0  0  0
   10.0858    3.2795    0.0000 O   0  0  0  0  0  0  0  0  0  0  0  0
   11.2982    3.9795    0.0000 P   0  0  3  0  0  0  0  0  0  0  0  0
   12.5107    3.2795    0.0000 O   0  0  0  0  0  0  0  0  0  0  0  0
   11.2982    5.3747    0.0000 O   0  0  0  0  0  0  0  0  0  0  0  0
   11.2982    2.5844    0.0000 O   0  0  0  0  0  0  0  0  0  0  0  0
   10.0858    1.8844    0.0000 Na  0  0  0  0  0  0  0  0  0  0  0  0
   13.7231    3.9795    0.0000 P   0  0  3  0  0  0  0  0  0  0  0  0
   14.9355    3.2795    0.0000 O   0  0  0  0  0  0  0  0  0  0  0  0
   13.7231    5.3747    0.0000 O   0  0  0  0  0  0  0  0  0  0  0  0
   13.7231    2.5795    0.0000 O   0  0  0  0  0  0  0  0  0  0  0  0
   14.9355    1.8795    0.0000 Na  0  0  0  0  0  0  0  0  0  0  0  0
   16.1480    3.9795    0.0000 C   0  0  1  0  0  0  0  0  0  0  0  0
   17.3604    3.2795    0.0000 O   0  0  0  0  0  0  0  0  0  0  0  0
   18.5728    3.9795    0.0000 C   0  0  1  0  0  0  0  0  0  0  0  0
   18.5728    5.3795    0.0000 C   0  0  2  0  0  0  0  0  0  0  0  0
   17.3604    6.0795    0.0000 C   0  0  1  0  0  0  0  0  0  0  0  0
   16.1480    5.3795    0.0000 C   0  0  1  0  0  0  0  0  0  0  0  0
   17.3604    7.4747    0.0000 O   0  0  0  0  0  0  0  0  0  0  0  0
   19.7811    3.2820    0.0000 C   0  0  0  0  0  0  0  0  0  0  0  0
   19.7811    6.0771    0.0000 O   0  0  0  0  0  0  0  0  0  0  0  0
   14.9397    6.0771    0.0000 O   0  0  0  0  0  0  0  0  0  0  0  0
   20.9935    3.9820    0.0000 O   0  0  0  0  0  0  0  0  0  0  0  0
  1  2  1  0  0  0  0
  2  3  1  0  0  0  0
  3  4  1  0  0  0  0
  4  5  1  0  0  0  0
  5  6  2  0  0  0  0
  6  1  1  0  0  0  0
  1  7  2  0  0  0  0
  3  8  2  0  0  0  0
  9 10  1  0  0  0  0
 10 11  1  0  0  0  0
 11 12  1  0  0  0  0
 12 13  1  0  0  0  0
 13  9  1  0  0  0  0
 10 14  1  1  0  0  0
 11 15  1  1  0  0  0
 12 16  1  6  0  0  0
 16 17  1  0  0  0  0
 17 18  1  0  0  0  0
 18 19  1  0  0  0  0
 18 20  2  0  0  0  0
 18 21  1  0  0  0  0
 21 22  1  0  0  0  0
 19 23  1  0  0  0  0
 23 24  1  0  0  0  0
 23 25  2  0  0  0  0
 23 26  1  0  0  0  0
 26 27  1  0  0  0  0
 28 24  1  6  0  0  0
 28 29  1  0  0  0  0
 29 30  1  0  0  0  0
 30 31  1  0  0  0  0
 31 32  1  0  0  0  0
 32 33  1  0  0  0  0
 33 28  1  0  0  0  0
 32 34  1  1  0  0  0
 30 35  1  1  0  0  0
 31 36  1  6  0  0  0
 33 37  1  6  0  0  0
 35 38  1  0  0  0  0
  9  4  1  6  0  0  0
M  END
>  <Mol_ID> (178)
7080

>  <Formula> (178)
C15H22N2Na2O17P2

>  <MolWeight> (178)
610.265442

>  <Cat> (178)
S3216

>  <Name> (178)
Uridine 5'-diphosphoglucose disodium salt

>  <Target> (178)
P2 Receptor

>  <Form> (178)
disodium

>  <CAS> (178)
28053-08-9

>  <URL> (178)
http://www.selleckchem.com/products/uridine-5-diphosphoglucose-disodium-salt.html

$$$$

csChFnd80/01042310162D

 12 13  0  0  0  0  0  0  0  0999 V2000
    2.4249    5.6001    0.0000 O   0  0  0  0  0  0  0  0  0  0  0  0
    0.0000    1.4000    0.0000 O   0  0  0  0  0  0  0  0  0  0  0  0
    2.4249    1.4000    0.0000 N   0  0  0  0  0  0  0  0  0  0  0  0
    4.9621    3.9267    0.0000 N   0  0  0  0  0  0  0  0  0  0  0  0
    1.2124    3.5001    0.0000 N   0  0  0  0  0  0  0  0  0  0  0  0
    4.9621    1.6735    0.0000 N   0  0  0  0  0  0  0  0  0  0  0  0
    3.6374    2.1000    0.0000 C   0  0  0  0  0  0  0  0  0  0  0  0
    3.6374    3.5001    0.0000 C   0  0  0  0  0  0  0  0  0  0  0  0
    2.4249    4.2001    0.0000 C   0  0  0  0  0  0  0  0  0  0  0  0
    1.2124    2.1000    0.0000 C   0  0  0  0  0  0  0  0  0  0  0  0
    2.4249    0.0000    0.0000 C   0  0  0  0  0  0  0  0  0  0  0  0
    5.7792    2.8001    0.0000 C   0  0  0  0  0  0  0  0  0  0  0  0
  1  9  2  0  0  0  0
  2 10  2  0  0  0  0
  3  7  1  0  0  0  0
  3 10  1  0  0  0  0
  3 11  1  0  0  0  0
  4  8  1  0  0  0  0
  4 12  1  0  0  0  0
  5  9  1  0  0  0  0
  5 10  1  0  0  0  0
  6  7  1  0  0  0  0
  6 12  2  0  0  0  0
  7  8  2  0  0  0  0
  8  9  1  0  0  0  0
M  END
>  <Mol_ID> (179)
7154

>  <Formula> (179)
C6H6N4O2

>  <MolWeight> (179)
166.13744

>  <Cat> (179)
S6186

>  <Name> (179)
3-Methylxanthine

>  <Target> (179)
PDE

>  <Form> (179)
free base

>  <CAS> (179)
1076-22-8

>  <URL> (179)
http://www.selleckchem.com/products/3-methylxanthine.html

$$$$

csChFnd80/01042310162D

 18 16  0  0  0  0  0  0  0  0999 V2000
   19.2895    2.1000    0.0000 C   0  0  0  0  0  0  0  0  0  0  0  0
   19.2895    0.7000    0.0000 N   0  0  0  0  0  0  0  0  0  0  0  0
   20.5020    0.0000    0.0000 N   0  0  0  0  0  0  0  0  0  0  0  0
   21.7144    0.7000    0.0000 C   0  0  0  0  0  0  0  0  0  0  0  0
   21.7144    2.1000    0.0000 N   0  0  0  0  0  0  0  0  0  0  0  0
   20.5020    2.8000    0.0000 C   0  0  0  0  0  0  0  0  0  0  0  0
   20.5020    4.1951    0.0000 O   0  0  0  0  0  0  0  0  0  0  0  0
   18.0813    2.7976    0.0000 N   0  3  0  0  0  0  0  0  0  0  0  0
   23.0459    0.2674    0.0000 N   0  0  0  0  0  0  0  0  0  0  0  0
   23.8688    1.4000    0.0000 C   0  0  0  0  0  0  0  0  0  0  0  0
   23.0459    2.5326    0.0000 N   0  5  0  0  0  0  0  0  0  0  0  0
   16.8731    2.1000    0.0000 O   0  5  0  0  0  0  0  0  0  0  0  0
   18.0813    4.1976    0.0000 O   0  0  0  0  0  0  0  0  0  0  0  0
   25.2639    1.4000    0.0000 S   0  0  0  0  0  0  0  0  0  0  0  0
   25.9615    2.6082    0.0000 C   0  0  0  0  0  0  0  0  0  0  0  0
   22.7369    4.0299    0.0000 Na  0  3  0  0  0  0  0  0  0  0  0  0
    9.7222   27.5951    0.0000 O   0  0  0  0  0  0  0  0  0  0  0  0
    0.0000   27.5951    0.0000 O   0  0  0  0  0  0  0  0  0  0  0  0
  1  2  2  0  0  0  0
  2  3  1  0  0  0  0
  3  4  2  0  0  0  0
  4  5  1  0  0  0  0
  5  6  1  0  0  0  0
  6  1  1  0  0  0  0
  6  7  2  0  0  0  0
  1  8  1  0  0  0  0
  4  9  1  0  0  0  0
  9 10  2  0  0  0  0
 10 11  1  0  0  0  0
 11  5  1  0  0  0  0
  8 12  1  0  0  0  0
  8 13  2  0  0  0  0
 10 14  1  0  0  0  0
 14 15  1  0  0  0  0
M  END
>  <Mol_ID> (180)
7174

>  <Formula> (180)
C5H7N6NaO5S

>  <MolWeight> (180)
286.20105

>  <Cat> (180)
S6854

>  <Name> (180)
Triazavirin

>  <Target> (180)
Nucleoside Analog/An

>  <Form> (180)
free base

>  <CAS> (180)
928659-17-0

>  <URL> (180)
http://www.selleckchem.com/products/triazavirin.html

$$$$

csChFnd80/01042310162D

 40 43  0  0  0  0  0  0  0  0999 V2000
    7.8353    4.8498    0.0000 P   0  0  3  0  0  0  0  0  0  0  0  0
    1.0456    5.1489    0.0000 F   0  0  0  0  0  0  0  0  0  0  0  0
    0.9263    7.0105    0.0000 F   0  0  0  0  0  0  0  0  0  0  0  0
    4.1298    6.9910    0.0000 O   0  0  0  0  0  0  0  0  0  0  0  0
    2.5842    3.7144    0.0000 O   0  0  0  0  0  0  0  0  0  0  0  0
    6.6229    5.5498    0.0000 O   0  0  0  0  0  0  0  0  0  0  0  0
    7.1353    3.6374    0.0000 O   0  0  0  0  0  0  0  0  0  0  0  0
    0.0000    7.7274    0.0000 O   0  0  0  0  0  0  0  0  0  0  0  0
    8.5353    6.0622    0.0000 O   0  0  0  0  0  0  0  0  0  0  0  0
   12.6851    4.8498    0.0000 O   0  0  0  0  0  0  0  0  0  0  0  0
   11.4726    2.7498    0.0000 O   0  0  0  0  0  0  0  0  0  0  0  0
    2.2500    8.6313    0.0000 N   0  0  0  0  0  0  0  0  0  0  0  0
    9.0478    4.1498    0.0000 N   0  0  0  0  0  0  0  0  0  0  0  0
    0.3421   10.1280    0.0000 N   0  0  0  0  0  0  0  0  0  0  0  0
    0.6842   12.5286    0.0000 N   0  0  0  0  0  0  0  0  0  0  0  0
    2.9256    5.0722    0.0000 C   0  0  2  0  0  0  0  0  0  0  0  0
    4.1980    5.5498    0.0000 C   0  0  1  0  0  0  0  0  0  0  0  0
    2.0355    6.1388    0.0000 C   0  0  0  0  0  0  0  0  0  0  0  0
    2.7720    7.3323    0.0000 C   0  0  1  0  0  0  0  0  0  0  0  0
    5.4105    4.8498    0.0000 C   0  0  0  0  0  0  0  0  0  0  0  0
    3.1141    9.7330    0.0000 C   0  0  0  0  0  0  0  0  0  0  0  0
    0.8641    8.8289    0.0000 C   0  0  0  0  0  0  0  0  0  0  0  0
    2.5923   11.0320    0.0000 C   0  0  0  0  0  0  0  0  0  0  0  0
    1.2062   11.2295    0.0000 C   0  0  0  0  0  0  0  0  0  0  0  0
   10.2602    4.8498    0.0000 C   0  0  1  0  0  0  0  0  0  0  0  0
   10.2602    6.2498    0.0000 C   0  0  0  0  0  0  0  0  0  0  0  0
   11.4726    4.1498    0.0000 C   0  0  0  0  0  0  0  0  0  0  0  0
    7.8353    2.4249    0.0000 C   0  0  0  0  0  0  0  0  0  0  0  0
    7.1354    1.2126    0.0000 C   0  0  0  0  0  0  0  0  0  0  0  0
    9.2355    2.4249    0.0000 C   0  0  0  0  0  0  0  0  0  0  0  0
   13.8975    4.1498    0.0000 C   0  0  0  0  0  0  0  0  0  0  0  0
    7.8353    0.0000    0.0000 C   0  0  0  0  0  0  0  0  0  0  0  0
    9.9354    1.2124    0.0000 C   0  0  0  0  0  0  0  0  0  0  0  0
   15.1100    4.8498    0.0000 C   0  0  0  0  0  0  0  0  0  0  0  0
    9.2353    0.0000    0.0000 C   0  0  0  0  0  0  0  0  0  0  0  0
   16.3224    4.1498    0.0000 C   0  0  0  0  0  0  0  0  0  0  0  0
   15.1099    6.2498    0.0000 C   0  0  0  0  0  0  0  0  0  0  0  0
   17.5347    4.8498    0.0000 C   0  0  0  0  0  0  0  0  0  0  0  0
   16.3224    6.9499    0.0000 C   0  0  0  0  0  0  0  0  0  0  0  0
   17.5349    6.2498    0.0000 C   0  0  0  0  0  0  0  0  0  0  0  0
  1  6  1  0  0  0  0
  1  7  1  0  0  0  0
  1  9  2  0  0  0  0
  1 13  1  0  0  0  0
  2 18  1  0  0  0  0
  3 18  1  0  0  0  0
  4 17  1  0  0  0  0
  4 19  1  0  0  0  0
 16  5  1  1  0  0  0
  6 20  1  0  0  0  0
  7 28  1  0  0  0  0
  8 22  2  0  0  0  0
 10 27  1  0  0  0  0
 10 31  1  0  0  0  0
 11 27  2  0  0  0  0
 19 12  1  6  0  0  0
 12 21  1  0  0  0  0
 12 22  1  0  0  0  0
 25 13  1  1  0  0  0
 14 22  1  0  0  0  0
 14 24  2  0  0  0  0
 15 24  1  0  0  0  0
 16 17  1  0  0  0  0
 16 18  1  0  0  0  0
 17 20  1  6  0  0  0
 18 19  1  0  0  0  0
 21 23  2  0  0  0  0
 23 24  1  0  0  0  0
 25 26  1  0  0  0  0
 25 27  1  0  0  0  0
 28 29  2  0  0  0  0
 28 30  1  0  0  0  0
 29 32  1  0  0  0  0
 30 33  2  0  0  0  0
 31 34  1  0  0  0  0
 32 35  2  0  0  0  0
 33 35  1  0  0  0  0
 34 36  2  0  0  0  0
 34 37  1  0  0  0  0
 36 38  1  0  0  0  0
 37 39  2  0  0  0  0
 38 40  2  0  0  0  0
 39 40  1  0  0  0  0
M  END
>  <Mol_ID> (181)
7239

>  <Formula> (181)
C25H27F2N4O8P

>  <MolWeight> (181)
580.4744474

>  <Cat> (181)
S9649

>  <Name> (181)
Acelarin (NUC-1031)

>  <Target> (181)
DNA/RNA Synthesis

>  <Form> (181)
free base

>  <CAS> (181)
840506-29-8

>  <URL> (181)
http://www.selleckchem.com/products/acelarin-nuc-1031.html

$$$$

csChFnd80/01042310162D

 10 11  0  0  0  0  0  0  0  0999 V2000
    2.1544    2.1000    0.0000 C   0  0  0  0  0  0  0  0  0  0  0  0
    2.1544    0.7000    0.0000 C   0  0  0  0  0  0  0  0  0  0  0  0
    3.3668    0.0000    0.0000 N   0  0  0  0  0  0  0  0  0  0  0  0
    4.5792    0.7000    0.0000 C   0  0  0  0  0  0  0  0  0  0  0  0
    4.5792    2.1000    0.0000 N   0  0  0  0  0  0  0  0  0  0  0  0
    3.3668    2.8000    0.0000 C   0  0  0  0  0  0  0  0  0  0  0  0
    0.8229    2.5326    0.0000 N   0  0  0  0  0  0  0  0  0  0  0  0
    0.0000    1.4000    0.0000 C   0  0  0  0  0  0  0  0  0  0  0  0
    0.8229    0.2674    0.0000 N   0  0  0  0  0  0  0  0  0  0  0  0
    3.3668    4.1951    0.0000 N   0  0  0  0  0  0  0  0  0  0  0  0
  1  2  2  0  0  0  0
  2  3  1  0  0  0  0
  3  4  2  0  0  0  0
  4  5  1  0  0  0  0
  5  6  2  0  0  0  0
  6  1  1  0  0  0  0
  1  7  1  0  0  0  0
  7  8  2  0  0  0  0
  8  9  1  0  0  0  0
  9  2  1  0  0  0  0
  6 10  1  0  0  0  0
M  END
>  <Mol_ID> (182)
7249

>  <Formula> (182)
C5H5N5

>  <MolWeight> (182)
135.1267

>  <Cat> (182)
S1981

>  <Name> (182)
Adenine

>  <Synonyms> (182)
N/A

>  <Target> (182)
DNA/RNA Synthesis

>  <Form> (182)
Free Base

>  <CAS> (182)
73-24-5

>  <URL> (182)
https://www.selleckchem.com/products/adenine.html

$$$$

csChFnd80/01042310162D

 78 87  0  0  0  0  0  0  0  0999 V2000
   13.3341    1.3998    0.0000 O   0  0  0  0  0  0  0  0  0  0  0  0
   12.1218    2.0998    0.0000 C   0  0  1  0  0  0  0  0  0  0  0  0
   10.9091    1.3998    0.0000 C   0  0  1  0  0  0  0  0  0  0  0  0
   12.1216    3.5000    0.0000 O   0  0  0  0  0  0  0  0  0  0  0  0
    9.6968    2.1000    0.0000 C   0  0  2  0  0  0  0  0  0  0  0  0
   10.9091    4.2000    0.0000 C   0  0  1  0  0  0  0  0  0  0  0  0
    9.6968    3.5000    0.0000 C   0  0  2  0  0  0  0  0  0  0  0  0
   10.9091    0.0000    0.0000 O   0  0  0  0  0  0  0  0  0  0  0  0
    8.4843    1.4000    0.0000 O   0  0  0  0  0  0  0  0  0  0  0  0
    8.4845    4.2000    0.0000 O   0  0  0  0  0  0  0  0  0  0  0  0
   10.9091    5.6000    0.0000 C   0  0  0  0  0  0  0  0  0  0  0  0
   12.3244    6.4157    0.0000 O   0  0  0  0  0  0  0  0  0  0  0  0
    8.4845    5.5998    0.0000 C   0  0  1  0  0  0  0  0  0  0  0  0
    7.2720    6.3000    0.0000 C   0  0  1  0  0  0  0  0  0  0  0  0
    9.6972    6.3000    0.0000 O   0  0  0  0  0  0  0  0  0  0  0  0
    7.2722    7.7002    0.0000 C   0  0  2  0  0  0  0  0  0  0  0  0
    9.6972    7.6998    0.0000 C   0  0  1  0  0  0  0  0  0  0  0  0
    8.4847    8.3997    0.0000 C   0  0  1  0  0  0  0  0  0  0  0  0
    6.0597    5.6000    0.0000 O   0  0  0  0  0  0  0  0  0  0  0  0
    6.0599    8.3995    0.0000 O   0  0  0  0  0  0  0  0  0  0  0  0
    8.4847    9.7997    0.0000 O   0  0  0  0  0  0  0  0  0  0  0  0
   10.9096    8.3998    0.0000 C   0  0  0  0  0  0  0  0  0  0  0  0
   10.9096    9.7998    0.0000 O   0  0  0  0  0  0  0  0  0  0  0  0
    6.0599    9.7995    0.0000 C   0  0  1  0  0  0  0  0  0  0  0  0
    4.8476   10.4995    0.0000 C   0  0  1  0  0  0  0  0  0  0  0  0
    7.2724   10.4993    0.0000 O   0  0  0  0  0  0  0  0  0  0  0  0
    4.8476   11.8995    0.0000 C   0  0  2  0  0  0  0  0  0  0  0  0
    7.2725   11.8995    0.0000 C   0  0  0  0  0  0  0  0  0  0  0  0
    6.0600   12.5995    0.0000 C   0  0  1  0  0  0  0  0  0  0  0  0
    3.6349    9.7995    0.0000 O   0  0  0  0  0  0  0  0  0  0  0  0
    3.6352   12.5993    0.0000 O   0  0  0  0  0  0  0  0  0  0  0  0
    6.0602   13.9995    0.0000 O   0  0  0  0  0  0  0  0  0  0  0  0
    4.8471    4.9000    0.0000 C   0  0  1  0  0  0  0  0  0  0  0  0
    4.8471    3.5000    0.0000 C   0  0  1  0  0  0  0  0  0  0  0  0
    3.6347    5.6000    0.0000 O   0  0  0  0  0  0  0  0  0  0  0  0
    3.6346    2.8002    0.0000 C   0  0  2  0  0  0  0  0  0  0  0  0
    2.4256    4.9002    0.0000 C   0  0  1  0  0  0  0  0  0  0  0  0
    2.4256    3.5002    0.0000 C   0  0  1  0  0  0  0  0  0  0  0  0
    6.0595    2.8000    0.0000 O   0  0  0  0  0  0  0  0  0  0  0  0
    3.6346    1.4002    0.0000 O   0  0  0  0  0  0  0  0  0  0  0  0
    1.2200    2.8002    0.0000 O   0  0  0  0  0  0  0  0  0  0  0  0
    1.2200    5.6002    0.0000 C   0  0  0  0  0  0  0  0  0  0  0  0
    0.0000    4.9002    0.0000 O   0  0  0  0  0  0  0  0  0  0  0  0
   19.3962    6.2998    0.0000 C   0  0  0  0  0  0  0  0  0  0  0  0
   18.1839    5.5998    0.0000 C   0  0  0  0  0  0  0  0  0  0  0  0
   19.3962    2.0998    0.0000 C   0  0  0  0  0  0  0  0  0  0  0  0
   18.1839    1.3998    0.0000 C   0  0  0  0  0  0  0  0  0  0  0  0
   15.7589    1.3998    0.0000 C   0  0  0  0  0  0  0  0  0  0  0  0
   14.5466    3.4998    0.0000 C   0  0  0  0  0  0  0  0  0  0  0  0
   15.7589    4.2000    0.0000 C   0  0  0  0  0  0  0  0  0  0  0  0
   21.9401    3.7671    0.0000 C   0  0  0  0  0  0  0  0  0  0  0  0
   19.3962    3.4998    0.0000 C   0  0  2  0  0  0  0  0  0  0  0  0
   19.3962    4.8998    0.0000 H   0  0  0  0  0  0  0  0  0  0  0  0
   18.1839    4.2000    0.0000 C   0  0  2  0  0  0  0  0  0  0  0  0
   18.1839    2.7998    0.0000 H   0  0  0  0  0  0  0  0  0  0  0  0
   20.6087    4.2000    0.0000 C   0  0  2  0  0  0  0  0  0  0  0  0
   20.6087    2.7998    0.0000 H   0  0  0  0  0  0  0  0  0  0  0  0
   21.9401    6.0324    0.0000 C   0  0  1  0  0  0  0  0  0  0  0  0
   21.9401    7.4324    0.0000 H   0  0  0  0  0  0  0  0  0  0  0  0
   22.7632    7.1651    0.0000 C   0  0  2  0  0  0  0  0  0  0  0  0
   22.7632    8.5597    0.0000 C   0  0  0  0  0  0  0  0  0  0  0  0
   16.9714    3.4998    0.0000 C   0  0  1  0  0  0  0  0  0  0  0  0
   16.9714    4.8998    0.0000 C   0  0  0  0  0  0  0  0  0  0  0  0
   25.3069    6.0324    0.0000 N   0  0  0  0  0  0  0  0  0  0  0  0
   26.5194    6.7324    0.0000 C   0  0  0  0  0  0  0  0  0  0  0  0
   26.5194    8.1324    0.0000 C   0  0  2  0  0  0  0  0  0  0  0  0
   25.3069    8.8300    0.0000 C   0  0  0  0  0  0  0  0  0  0  0  0
   24.0946    8.1322    0.0000 C   0  0  0  0  0  0  0  0  0  0  0  0
   24.0946    6.7324    0.0000 C   0  0  2  0  0  0  0  0  0  0  0  0
   27.7317    8.8300    0.0000 C   0  0  0  0  0  0  0  0  0  0  0  0
   24.0946    5.3324    0.0000 O   0  0  0  0  0  0  0  0  0  0  0  0
   20.6087    5.5998    0.0000 C   0  0  1  0  0  0  0  0  0  0  0  0
   20.6087    6.9998    0.0000 C   0  0  0  0  0  0  0  0  0  0  0  0
   14.5466    2.0998    0.0000 C   0  0  2  0  0  0  0  0  0  0  0  0
   16.9714    2.0998    0.0000 C   0  0  1  0  0  0  0  0  0  0  0  0
   16.9714    0.7000    0.0000 H   0  0  0  0  0  0  0  0  0  0  0  0
   22.7632    4.8998    0.0000 C   0  0  1  0  0  0  0  0  0  0  0  0
   22.7632    3.4998    0.0000 H   0  0  0  0  0  0  0  0  0  0  0  0
  2  3  1  0  0  0  0
  2  4  1  0  0  0  0
  3  5  1  0  0  0  0
  4  6  1  0  0  0  0
  5  7  1  0  0  0  0
  6  7  1  0  0  0  0
  2  1  1  1  0  0  0
  3  8  1  6  0  0  0
  5  9  1  1  0  0  0
  7 10  1  1  0  0  0
  6 11  1  1  0  0  0
 12 11  1  0  0  0  0
 13 14  1  0  0  0  0
 13 15  1  0  0  0  0
 14 16  1  0  0  0  0
 15 17  1  0  0  0  0
 16 18  1  0  0  0  0
 17 18  1  0  0  0  0
 13 10  1  1  0  0  0
 14 19  1  6  0  0  0
 16 20  1  1  0  0  0
 18 21  1  6  0  0  0
 17 22  1  1  0  0  0
 23 22  1  0  0  0  0
 24 25  1  0  0  0  0
 24 26  1  0  0  0  0
 25 27  1  0  0  0  0
 26 28  1  0  0  0  0
 27 29  1  0  0  0  0
 28 29  1  0  0  0  0
 24 20  1  1  0  0  0
 25 30  1  6  0  0  0
 27 31  1  1  0  0  0
 29 32  1  6  0  0  0
 33 34  1  0  0  0  0
 33 35  1  0  0  0  0
 34 36  1  0  0  0  0
 35 37  1  0  0  0  0
 36 38  1  0  0  0  0
 37 38  1  0  0  0  0
 33 19  1  1  0  0  0
 34 39  1  6  0  0  0
 36 40  1  1  0  0  0
 38 41  1  6  0  0  0
 37 42  1  1  0  0  0
 43 42  1  0  0  0  0
 44 45  1  0  0  0  0
 72 44  1  0  0  0  0
 54 45  1  0  0  0  0
 52 46  1  0  0  0  0
 46 47  1  0  0  0  0
 47 75  1  0  0  0  0
 75 48  1  0  0  0  0
 48 74  1  0  0  0  0
 50 49  1  0  0  0  0
 49 74  1  0  0  0  0
 62 50  1  0  0  0  0
 77 51  1  0  0  0  0
 56 51  1  0  0  0  0
 52 54  1  0  0  0  0
 56 52  1  0  0  0  0
 52 53  1  1  0  0  0
 54 62  1  0  0  0  0
 54 55  1  6  0  0  0
 72 56  1  0  0  0  0
 56 57  1  6  0  0  0
 58 72  1  0  0  0  0
 58 77  1  0  0  0  0
 60 58  1  0  0  0  0
 58 59  1  6  0  0  0
 69 60  1  0  0  0  0
 60 61  1  6  0  0  0
 62 75  1  0  0  0  0
 62 63  1  1  0  0  0
 64 65  1  0  0  0  0
 69 64  1  1  0  0  0
 65 66  1  0  0  0  0
 66 67  1  0  0  0  0
 66 70  1  6  0  0  0
 67 68  1  0  0  0  0
 69 68  1  6  0  0  0
 69 71  1  0  0  0  0
 77 71  1  0  0  0  0
 72 73  1  1  0  0  0
 74  1  1  1  0  0  0
 75 76  1  6  0  0  0
 77 78  1  6  0  0  0
M  END
>  <Mol_ID> (183)
7321

>  <Formula> (183)
C50H83NO21

>  <MolWeight> (183)
1034.18812

>  <Cat> (183)
S9444

>  <Name> (183)
Tomatine

>  <Synonyms> (183)
lycopersicin

>  <Target> (183)
Anti-infection

>  <Form> (183)
Free Base

>  <CAS> (183)
17406-45-0

>  <URL> (183)
https://www.selleckchem.com/products/tomatine.html

$$$$

csChFnd80/01042310162D

 19 21  0  0  0  0  0  0  0  0999 V2000
    6.1444    3.1583    0.0000 O   0  0  0  0  0  0  0  0  0  0  0  0
    4.3699    0.0000    0.0000 O   0  0  0  0  0  0  0  0  0  0  0  0
    8.5506    1.4970    0.0000 O   0  0  0  0  0  0  0  0  0  0  0  0
    2.2985    9.0031    0.0000 O   0  0  0  0  0  0  0  0  0  0  0  0
    4.3860    4.9282    0.0000 N   0  0  0  0  0  0  0  0  0  0  0  0
    4.3972    7.1815    0.0000 N   0  0  0  0  0  0  0  0  0  0  0  0
    1.9645    4.4941    0.0000 N   0  0  0  0  0  0  0  0  0  0  0  0
    0.0000    6.0768    0.0000 N   0  0  0  0  0  0  0  0  0  0  0  0
    4.8142    3.5954    0.0000 C   0  0  1  0  0  0  0  0  0  0  0  0
    3.9877    2.4654    0.0000 C   0  0  0  0  0  0  0  0  0  0  0  0
    4.8070    1.3300    0.0000 C   0  0  1  0  0  0  0  0  0  0  0  0
    6.1398    1.7583    0.0000 C   0  0  1  0  0  0  0  0  0  0  0  0
    7.2697    0.9317    0.0000 C   0  0  0  0  0  0  0  0  0  0  0  0
    3.0634    5.3615    0.0000 C   0  0  0  0  0  0  0  0  0  0  0  0
    3.0704    6.7614    0.0000 C   0  0  0  0  0  0  0  0  0  0  0  0
    5.2086    6.0507    0.0000 C   0  0  0  0  0  0  0  0  0  0  0  0
    1.9802    7.6398    0.0000 C   0  0  1  0  0  0  0  0  0  0  0  0
    0.6138    7.3351    0.0000 C   0  0  0  0  0  0  0  0  0  0  0  0
    0.6012    4.8124    0.0000 C   0  0  0  0  0  0  0  0  0  0  0  0
  1  9  1  0  0  0  0
  1 12  1  0  0  0  0
 11  2  1  1  0  0  0
  3 13  1  0  0  0  0
 17  4  1  1  0  0  0
  9  5  1  6  0  0  0
  5 14  1  0  0  0  0
  5 16  1  0  0  0  0
  6 15  1  0  0  0  0
  6 16  2  0  0  0  0
  7 14  1  0  0  0  0
  7 19  1  0  0  0  0
  8 18  1  0  0  0  0
  8 19  2  0  0  0  0
  9 10  1  0  0  0  0
 10 11  1  0  0  0  0
 11 12  1  0  0  0  0
 12 13  1  6  0  0  0
 14 15  2  0  0  0  0
 15 17  1  0  0  0  0
 17 18  1  0  0  0  0
M  END
>  <Mol_ID> (184)
7324

>  <Formula> (184)
C11H16N4O4

>  <MolWeight> (184)
268.26914

>  <Cat> (184)
S9521

>  <Name> (184)
Pentostatin

>  <Synonyms> (184)
N/A

>  <Target> (184)
DNA/RNA synthesis

>  <Form> (184)
Free Base

>  <CAS> (184)
53910-25-1

>  <URL> (184)
https://www.selleckchem.com/products/pentostatin.html

$$$$

csChFnd80/01042310162D

 30 33  0  0  0  0  0  0  0  0999 V2000
    1.2082   14.3075    0.0000 C   0  0  0  0  0  0  0  0  0  0  0  0
    1.2082   12.9075    0.0000 C   0  0  0  0  0  0  0  0  0  0  0  0
    2.4207   12.2075    0.0000 C   0  0  0  0  0  0  0  0  0  0  0  0
    3.6331   12.9075    0.0000 C   0  0  0  0  0  0  0  0  0  0  0  0
    3.6331   14.3075    0.0000 C   0  0  0  0  0  0  0  0  0  0  0  0
    2.4207   15.0075    0.0000 C   0  0  0  0  0  0  0  0  0  0  0  0
    0.0000   15.0051    0.0000 I   0  0  0  0  0  0  0  0  0  0  0  0
    2.4207   10.8124    0.0000 C   0  0  0  0  0  0  0  0  0  0  0  0
    3.6289   10.1148    0.0000 N   0  0  0  0  0  0  0  0  0  0  0  0
    3.6289    8.7197    0.0000 C   0  0  0  0  0  0  0  0  0  0  0  0
    2.4165    8.0197    0.0000 N   0  0  0  0  0  0  0  0  0  0  0  0
    2.4165    6.6197    0.0000 C   0  0  0  0  0  0  0  0  0  0  0  0
    3.6289    5.9197    0.0000 N   0  0  0  0  0  0  0  0  0  0  0  0
    4.8413    6.6197    0.0000 C   0  0  0  0  0  0  0  0  0  0  0  0
    4.8413    8.0197    0.0000 C   0  0  0  0  0  0  0  0  0  0  0  0
    6.1728    6.1871    0.0000 N   0  0  0  0  0  0  0  0  0  0  0  0
    6.9957    7.3197    0.0000 C   0  0  0  0  0  0  0  0  0  0  0  0
    6.1728    8.4523    0.0000 N   0  0  0  0  0  0  0  0  0  0  0  0
    1.2082    5.9221    0.0000 Cl  0  0  0  0  0  0  0  0  0  0  0  0
    6.6039    4.8602    0.0000 C   0  0  1  0  0  0  0  0  0  0  0  0
    5.7810    3.7276    0.0000 C   0  0  1  0  0  0  0  0  0  0  0  0
    6.6039    2.5950    0.0000 C   0  0  1  0  0  0  0  0  0  0  0  0
    7.9354    3.0276    0.0000 C   0  0  2  0  0  0  0  0  0  0  0  0
    7.9354    4.4276    0.0000 O   0  0  0  0  0  0  0  0  0  0  0  0
    6.1728    1.2681    0.0000 O   0  0  0  0  0  0  0  0  0  0  0  0
    4.3859    3.7276    0.0000 O   0  0  0  0  0  0  0  0  0  0  0  0
    9.0641    2.2075    0.0000 C   0  0  0  0  0  0  0  0  0  0  0  0
   10.3386    2.7750    0.0000 O   0  0  0  0  0  0  0  0  0  0  0  0
    8.9183    0.8200    0.0000 N   0  0  0  0  0  0  0  0  0  0  0  0
   10.0470    0.0000    0.0000 C   0  0  0  0  0  0  0  0  0  0  0  0
  1  2  2  0  0  0  0
  2  3  1  0  0  0  0
  3  4  2  0  0  0  0
  4  5  1  0  0  0  0
  5  6  2  0  0  0  0
  6  1  1  0  0  0  0
  1  7  1  0  0  0  0
  3  8  1  0  0  0  0
  8  9  1  0  0  0  0
  9 10  1  0  0  0  0
 10 11  2  0  0  0  0
 11 12  1  0  0  0  0
 12 13  2  0  0  0  0
 13 14  1  0  0  0  0
 14 15  2  0  0  0  0
 15 10  1  0  0  0  0
 14 16  1  0  0  0  0
 16 17  1  0  0  0  0
 17 18  2  0  0  0  0
 18 15  1  0  0  0  0
 12 19  1  0  0  0  0
 20 16  1  6  0  0  0
 20 21  1  0  0  0  0
 21 22  1  0  0  0  0
 22 23  1  0  0  0  0
 23 24  1  0  0  0  0
 24 20  1  0  0  0  0
 22 25  1  1  0  0  0
 21 26  1  1  0  0  0
 27 28  2  0  0  0  0
 27 29  1  0  0  0  0
 29 30  1  0  0  0  0
 23 27  1  6  0  0  0
M  END
>  <Mol_ID> (185)
7391

>  <Formula> (185)
C18H18ClIN6O4

>  <MolWeight> (185)
544.73079

>  <Cat> (185)
S0498

>  <Name> (185)
Namodenoson (CF-102)

>  <Synonyms> (185)
2-Cl-IB-MECA

>  <Target> (185)
Adenosine Receptor

>  <Form> (185)
Free Base

>  <CAS> (185)
163042-96-4

>  <URL> (185)
https://www.selleckchem.com/products/namodenoson-cf-102.html

$$$$

csChFnd80/01042310162D

 24 26  0  0  0  0  0  0  0  0999 V2000
    7.2195    0.2653    0.0000 F   0  0  0  0  0  0  0  0  0  0  0  0
   11.9040    1.5205    0.0000 F   0  0  0  0  0  0  0  0  0  0  0  0
    3.5249    0.0000    0.0000 O   0  0  0  0  0  0  0  0  0  0  0  0
    6.1324    4.3221    0.0000 O   0  0  0  0  0  0  0  0  0  0  0  0
    1.8103    1.7146    0.0000 O   0  0  0  0  0  0  0  0  0  0  0  0
    3.7758    5.9451    0.0000 N   0  0  0  0  0  0  0  0  0  0  0  0
    4.1525    2.3422    0.0000 C   0  0  3  0  0  0  0  0  0  0  0  0
    3.7401    3.6801    0.0000 C   0  0  0  0  0  0  0  0  0  0  0  0
    5.5048    1.9799    0.0000 C   0  0  0  0  0  0  0  0  0  0  0  0
    2.4103    4.1338    0.0000 C   0  0  0  0  0  0  0  0  0  0  0  0
    2.4430    5.5334    0.0000 C   0  0  0  0  0  0  0  0  0  0  0  0
    4.5808    4.7997    0.0000 C   0  0  0  0  0  0  0  0  0  0  0  0
    6.4948    2.9698    0.0000 C   0  0  0  0  0  0  0  0  0  0  0  0
    3.1626    1.3523    0.0000 C   0  0  0  0  0  0  0  0  0  0  0  0
    1.1859    3.4644    0.0000 C   0  0  0  0  0  0  0  0  0  0  0  0
    1.2433    6.2638    0.0000 C   0  0  0  0  0  0  0  0  0  0  0  0
    7.8471    2.6075    0.0000 C   0  0  0  0  0  0  0  0  0  0  0  0
    0.0000    4.1865    0.0000 C   0  0  0  0  0  0  0  0  0  0  0  0
    0.0047    5.5867    0.0000 C   0  0  0  0  0  0  0  0  0  0  0  0
    8.2094    1.2552    0.0000 C   0  0  0  0  0  0  0  0  0  0  0  0
    8.8370    3.5975    0.0000 C   0  0  0  0  0  0  0  0  0  0  0  0
    9.5617    0.8929    0.0000 C   0  0  0  0  0  0  0  0  0  0  0  0
   10.1893    3.2351    0.0000 C   0  0  0  0  0  0  0  0  0  0  0  0
   10.5517    1.8828    0.0000 C   0  0  0  0  0  0  0  0  0  0  0  0
  1 20  1  0  0  0  0
  2 24  1  0  0  0  0
  3 14  1  0  0  0  0
  4 13  2  0  0  0  0
  5 14  2  0  0  0  0
  6 11  1  0  0  0  0
  6 12  1  0  0  0  0
  7  8  1  0  0  0  0
  7  9  1  0  0  0  0
  7 14  1  0  0  0  0
  8 10  1  0  0  0  0
  8 12  2  0  0  0  0
  9 13  1  0  0  0  0
 10 11  1  0  0  0  0
 10 15  2  0  0  0  0
 11 16  2  0  0  0  0
 13 17  1  0  0  0  0
 15 18  1  0  0  0  0
 16 19  1  0  0  0  0
 17 20  2  0  0  0  0
 17 21  1  0  0  0  0
 18 19  2  0  0  0  0
 20 22  1  0  0  0  0
 21 23  2  0  0  0  0
 22 24  2  0  0  0  0
 23 24  1  0  0  0  0
M  END
>  <Mol_ID> (186)
7410

>  <Formula> (186)
C18H13F2NO3

>  <MolWeight> (186)
329.2975264

>  <Cat> (186)
S0881

>  <Name> (186)
Mitochonic acid 5

>  <Synonyms> (186)
MA-5

>  <Target> (186)
Mitophagy. MAPK. ERK. Yap

>  <Form> (186)
Free Base

>  <CAS> (186)
1354707-41-7

>  <URL> (186)
https://www.selleckchem.com/products/mitochonic-acid-5.html

$$$$

csChFnd80/01042310162D

 35 34  0  0  0  0  0  0  0  0999 V2000
   11.2073    4.9554    0.0000 P   0  0  3  0  0  0  0  0  0  0  0  0
   12.8171    3.1418    0.0000 P   0  0  3  0  0  0  0  0  0  0  0  0
   14.4269    1.3284    0.0000 P   0  0  0  0  0  0  0  0  0  0  0  0
   15.3977    3.5553    0.0000 Na  0  3  0  0  0  0  0  0  0  0  0  0
   17.0016    0.8377    0.0000 Na  0  3  0  0  0  0  0  0  0  0  0  0
   11.6708    0.0163    0.0000 Na  0  3  0  0  0  0  0  0  0  0  0  0
    7.1306    6.3958    0.0000 O   0  0  0  0  0  0  0  0  0  0  0  0
    5.6309    9.6935    0.0000 O   0  0  0  0  0  0  0  0  0  0  0  0
    8.6767    9.6721    0.0000 O   0  0  0  0  0  0  0  0  0  0  0  0
    9.8789    5.3973    0.0000 O   0  0  0  0  0  0  0  0  0  0  0  0
   12.5358    4.5133    0.0000 O   0  0  0  0  0  0  0  0  0  0  0  0
   10.7652    3.6269    0.0000 O   0  0  0  0  0  0  0  0  0  0  0  0
   11.6492    6.2838    0.0000 O   0  0  0  0  0  0  0  0  0  0  0  0
    0.0000    6.5729    0.0000 O   0  0  0  0  0  0  0  0  0  0  0  0
   13.0985    1.7705    0.0000 O   0  0  0  0  0  0  0  0  0  0  0  0
   14.1885    3.4233    0.0000 O   0  5  0  0  0  0  0  0  0  0  0  0
   11.4457    2.8604    0.0000 O   0  0  0  0  0  0  0  0  0  0  0  0
   15.7553    0.8864    0.0000 O   0  5  0  0  0  0  0  0  0  0  0  0
   13.9850    0.0000    0.0000 O   0  5  0  0  0  0  0  0  0  0  0  0
   14.8689    2.6568    0.0000 O   0  0  0  0  0  0  0  0  0  0  0  0
    4.6693    6.8035    0.0000 N   0  0  0  0  0  0  0  0  0  0  0  0
    2.8394    5.4888    0.0000 N   0  0  0  0  0  0  0  0  0  0  0  0
    3.4110    9.0235    0.0000 N   0  0  0  0  0  0  0  0  0  0  0  0
    0.9981    8.7828    0.0000 N   0  0  0  0  0  0  0  0  0  0  0  0
    1.9961   10.9929    0.0000 N   0  0  0  0  0  0  0  0  0  0  0  0
    6.4458    8.5552    0.0000 C   0  0  2  0  0  0  0  0  0  0  0  0
    7.8458    8.5453    0.0000 C   0  0  1  0  0  0  0  0  0  0  0  0
    6.0038    7.2267    0.0000 C   0  0  1  0  0  0  0  0  0  0  0  0
    8.2690    7.2108    0.0000 C   0  0  1  0  0  0  0  0  0  0  0  0
    9.5974    6.7688    0.0000 C   0  0  0  0  0  0  0  0  0  0  0  0
    3.5499    7.6304    0.0000 C   0  0  0  0  0  0  0  0  0  0  0  0
    4.2310    5.4826    0.0000 C   0  0  0  0  0  0  0  0  0  0  0  0
    2.4129    6.8136    0.0000 C   0  0  0  0  0  0  0  0  0  0  0  0
    1.1370    7.3898    0.0000 C   0  0  0  0  0  0  0  0  0  0  0  0
    2.1351    9.5997    0.0000 C   0  0  0  0  0  0  0  0  0  0  0  0
  1 10  1  0  0  0  0
  1 11  1  0  0  0  0
  1 12  1  0  0  0  0
  1 13  2  0  0  0  0
  2 11  1  0  0  0  0
  2 15  1  0  0  0  0
  2 16  1  0  0  0  0
  2 17  2  0  0  0  0
  3 15  1  0  0  0  0
  3 18  1  0  0  0  0
  3 19  1  0  0  0  0
  3 20  2  0  0  0  0
  7 28  1  0  0  0  0
  7 29  1  0  0  0  0
 26  8  1  6  0  0  0
 27  9  1  6  0  0  0
 10 30  1  0  0  0  0
 14 34  2  0  0  0  0
 28 21  1  1  0  0  0
 21 31  1  0  0  0  0
 21 32  1  0  0  0  0
 22 32  2  0  0  0  0
 22 33  1  0  0  0  0
 23 31  1  0  0  0  0
 23 35  2  0  0  0  0
 24 34  1  0  0  0  0
 24 35  1  0  0  0  0
 25 35  1  0  0  0  0
 26 27  1  0  0  0  0
 26 28  1  0  0  0  0
 27 29  1  0  0  0  0
 29 30  1  1  0  0  0
 31 33  2  0  0  0  0
 33 34  1  0  0  0  0
M  END
>  <Mol_ID> (187)
7456

>  <Formula> (187)
C10H13N5Na3O14P3

>  <MolWeight> (187)
589.125913

>  <Cat> (187)
S3084

>  <Name> (187)
Guanosine 5'-triphosphate trisodium sa

>  <Synonyms> (187)
5'-GTP trisodium salt, Guanosine triphosphate, H4GTP

>  <Target> (187)
others

>  <Form> (187)
Trisodium sal

>  <CAS> (187)
36051-31-7

>  <URL> (187)
https://www.selleckchem.com/products/guanosine-5-triphosphate-trisodium-salt.htm

$$$$

csChFnd80/01042310162D

 22 21  0  0  0  0  0  0  0  0999 V2000
    1.2124    0.7000    0.0000 C   0  0  0  0  0  0  0  0  0  0  0  0
    2.4252    0.0016    0.0000 C   0  0  0  0  0  0  0  0  0  0  0  0
    3.6370    0.7027    0.0000 C   0  0  0  0  0  0  0  0  0  0  0  0
    3.6354    2.1033    0.0000 N   0  0  0  0  0  0  0  0  0  0  0  0
    2.4220    2.8016    0.0000 C   0  0  0  0  0  0  0  0  0  0  0  0
    1.2109    2.1005    0.0000 N   0  0  0  0  0  0  0  0  0  0  0  0
    0.0000    0.0000    0.0000 O   0  0  0  0  0  0  0  0  0  0  0  0
    2.4220    4.2016    0.0000 O   0  0  0  0  0  0  0  0  0  0  0  0
    4.8478    2.8033    0.0000 C   0  0  1  0  0  0  0  0  0  0  0  0
    4.9958    4.1949    0.0000 C   0  0  0  0  0  0  0  0  0  0  0  0
    6.3654    4.4848    0.0000 C   0  0  1  0  0  0  0  0  0  0  0  0
    7.0643    3.2717    0.0000 C   0  0  2  0  0  0  0  0  0  0  0  0
    6.1266    2.2322    0.0000 O   0  0  0  0  0  0  0  0  0  0  0  0
    6.9360    5.7632    0.0000 O   0  0  0  0  0  0  0  0  0  0  0  0
    8.4565    3.1241    0.0000 C   0  0  0  0  0  0  0  0  0  0  0  0
    9.2794    4.2567    0.0000 O   0  0  0  0  0  0  0  0  0  0  0  0
   10.6718    4.1104    0.0000 P   0  0  0  0  0  0  0  0  0  0  0  0
   10.8181    5.5027    0.0000 O   0  5  0  0  0  0  0  0  0  0  0  0
   12.0641    3.9641    0.0000 O   0  5  0  0  0  0  0  0  0  0  0  0
   10.5254    2.7181    0.0000 O   0  0  0  0  0  0  0  0  0  0  0  0
   12.1892    5.5415    0.0000 Na  0  3  0  0  0  0  0  0  0  0  0  0
   13.3550    4.0001    0.0000 Na  0  3  0  0  0  0  0  0  0  0  0  0
  1  2  1  0  0  0  0
  2  3  2  0  0  0  0
  3  4  1  0  0  0  0
  4  5  1  0  0  0  0
  5  6  1  0  0  0  0
  6  1  1  0  0  0  0
  1  7  2  0  0  0  0
  5  8  2  0  0  0  0
  9  4  1  1  0  0  0
  9 10  1  0  0  0  0
 10 11  1  0  0  0  0
 11 12  1  0  0  0  0
 12 13  1  0  0  0  0
 13  9  1  0  0  0  0
 11 14  1  6  0  0  0
 12 15  1  1  0  0  0
 15 16  1  0  0  0  0
 16 17  1  0  0  0  0
 17 18  1  0  0  0  0
 17 19  1  0  0  0  0
 17 20  2  0  0  0  0
M  END
>  <Mol_ID> (188)
7493

>  <Formula> (188)
C9H11N2Na2O8P

>  <MolWeight> (188)
352.145541

>  <Cat> (188)
S3169

>  <Name> (188)
2'-Deoxyuridine 5'-monophosphate disod

>  <Synonyms> (188)
dUMP

>  <Target> (188)
others

>  <Form> (188)
Disodium salt

>  <CAS> (188)
42155-08-8

>  <URL> (188)
https://www.selleckchem.com/products/2-deoxyuridine-5-monophosphate-disodium-sal

$$$$

csChFnd80/01042310162D

 23 22  0  0  0  0  0  0  0  0999 V2000
   10.4609    3.9897    0.0000 P   0  0  0  0  0  0  0  0  0  0  0  0
   13.0433    4.1313    0.0000 Na  0  3  0  0  0  0  0  0  0  0  0  0
    8.3115    5.4086    0.0000 Na  0  3  0  0  0  0  0  0  0  0  0  0
    6.1284    3.5289    0.0000 O   0  0  0  0  0  0  0  0  0  0  0  0
    6.9391    0.0000    0.0000 O   0  0  0  0  0  0  0  0  0  0  0  0
    9.0681    3.8923    0.0000 O   0  0  0  0  0  0  0  0  0  0  0  0
    4.8451    5.7532    0.0000 O   0  0  0  0  0  0  0  0  0  0  0  0
    0.0000    5.7469    0.0000 O   0  0  0  0  0  0  0  0  0  0  0  0
   11.8537    4.0871    0.0000 O   0  5  0  0  0  0  0  0  0  0  0  0
   10.3635    5.3825    0.0000 O   0  5  0  0  0  0  0  0  0  0  0  0
   10.5583    2.5969    0.0000 O   0  0  0  0  0  0  0  0  0  0  0  0
    3.6395    3.6539    0.0000 N   0  0  0  0  0  0  0  0  0  0  0  0
    2.4221    5.7526    0.0000 N   0  0  0  0  0  0  0  0  0  0  0  0
    6.3691    1.2746    0.0000 C   0  0  2  0  0  0  0  0  0  0  0  0
    7.0676    2.4891    0.0000 C   0  0  1  0  0  0  0  0  0  0  0  0
    4.8487    2.9558    0.0000 C   0  0  1  0  0  0  0  0  0  0  0  0
    4.9981    1.5636    0.0000 C   0  0  0  0  0  0  0  0  0  0  0  0
    8.4560    2.6374    0.0000 C   0  0  0  0  0  0  0  0  0  0  0  0
    2.4267    2.9503    0.0000 C   0  0  0  0  0  0  0  0  0  0  0  0
    3.6359    5.0551    0.0000 C   0  0  0  0  0  0  0  0  0  0  0  0
    1.2128    3.6478    0.0000 C   0  0  0  0  0  0  0  0  0  0  0  0
    1.2092    5.0488    0.0000 C   0  0  0  0  0  0  0  0  0  0  0  0
    0.0036    2.9496    0.0000 C   0  0  0  0  0  0  0  0  0  0  0  0
  1  6  1  0  0  0  0
  1  9  1  0  0  0  0
  1 10  1  0  0  0  0
  1 11  2  0  0  0  0
  4 15  1  0  0  0  0
  4 16  1  0  0  0  0
 14  5  1  1  0  0  0
  6 18  1  0  0  0  0
  7 20  2  0  0  0  0
  8 22  2  0  0  0  0
 16 12  1  6  0  0  0
 12 19  1  0  0  0  0
 12 20  1  0  0  0  0
 13 20  1  0  0  0  0
 13 22  1  0  0  0  0
 14 15  1  0  0  0  0
 14 17  1  0  0  0  0
 15 18  1  6  0  0  0
 16 17  1  0  0  0  0
 19 21  2  0  0  0  0
 21 22  1  0  0  0  0
 21 23  1  0  0  0  0
M  END
>  <Mol_ID> (189)
7495

>  <Formula> (189)
C10H13N2Na2O8P

>  <MolWeight> (189)
366.172121

>  <Cat> (189)
S3221

>  <Name> (189)
Thymidine 5'-monophosphate disodium sa

>  <Synonyms> (189)
5'-Thymidylic acid disodium salt

>  <Target> (189)
others

>  <Form> (189)
Disodium salt

>  <CAS> (189)
33430-62-5

>  <URL> (189)
https://www.selleckchem.com/products/thymidine-5-monophosphate-disodium-salt.htm

$$$$

csChFnd80/01042310162D

 22 24  0  0  0  0  0  0  0  0999 V2000
    4.2664   11.2258    0.0000 P   0  0  0  0  0  0  0  0  0  0  0  0
    3.3636    6.3914    0.0000 O   0  0  0  0  0  0  0  0  0  0  0  0
    6.6532    7.9086    0.0000 O   0  0  0  0  0  0  0  0  0  0  0  0
    4.6967    9.8935    0.0000 O   0  0  0  0  0  0  0  0  0  0  0  0
    3.8360   12.5580    0.0000 O   0  0  0  0  0  0  0  0  0  0  0  0
    5.5986   11.6561    0.0000 O   0  0  0  0  0  0  0  0  0  0  0  0
    2.9341   10.7954    0.0000 O   0  0  0  0  0  0  0  0  0  0  0  0
    3.7496    3.9266    0.0000 N   0  0  0  0  0  0  0  0  0  0  0  0
    3.7496    1.6733    0.0000 N   0  0  0  0  0  0  0  0  0  0  0  0
    1.2124    4.2000    0.0000 N   0  0  0  0  0  0  0  0  0  0  0  0
    0.0000    2.1000    0.0000 N   0  0  0  0  0  0  0  0  0  0  0  0
    1.2124    0.0000    0.0000 N   0  0  0  0  0  0  0  0  0  0  0  0
    5.5191    7.0876    0.0000 C   0  0  2  0  0  0  0  0  0  0  0  0
    4.1845    5.2573    0.0000 C   0  0  1  0  0  0  0  0  0  0  0  0
    4.1884    7.5225    0.0000 C   0  0  1  0  0  0  0  0  0  0  0  0
    5.5167    5.6876    0.0000 C   0  0  0  0  0  0  0  0  0  0  0  0
    3.7582    8.8547    0.0000 C   0  0  0  0  0  0  0  0  0  0  0  0
    2.4248    3.5000    0.0000 C   0  0  0  0  0  0  0  0  0  0  0  0
    4.5667    2.8000    0.0000 C   0  0  0  0  0  0  0  0  0  0  0  0
    2.4248    2.1000    0.0000 C   0  0  0  0  0  0  0  0  0  0  0  0
    1.2124    1.4000    0.0000 C   0  0  0  0  0  0  0  0  0  0  0  0
    0.0000    3.5000    0.0000 C   0  0  0  0  0  0  0  0  0  0  0  0
  1  4  1  0  0  0  0
  1  5  1  0  0  0  0
  1  6  1  0  0  0  0
  1  7  2  0  0  0  0
  2 14  1  0  0  0  0
  2 15  1  0  0  0  0
 13  3  1  1  0  0  0
  4 17  1  0  0  0  0
 14  8  1  6  0  0  0
  8 18  1  0  0  0  0
  8 19  1  0  0  0  0
  9 19  2  0  0  0  0
  9 20  1  0  0  0  0
 10 18  2  0  0  0  0
 10 22  1  0  0  0  0
 11 21  1  0  0  0  0
 11 22  2  0  0  0  0
 12 21  1  0  0  0  0
 13 15  1  0  0  0  0
 13 16  1  0  0  0  0
 14 16  1  0  0  0  0
 15 17  1  6  0  0  0
 18 20  1  0  0  0  0
 20 21  2  0  0  0  0
M  END
>  <Mol_ID> (190)
7496

>  <Formula> (190)
C10H14N5O6P

>  <MolWeight> (190)
331.221821

>  <Cat> (190)
S3248

>  <Name> (190)
2'-Deoxyadenosine 5'-monophosphate

>  <Synonyms> (190)
5'-dAMP

>  <Target> (190)
others

>  <Form> (190)
Free Base

>  <CAS> (190)
653-63-4

>  <URL> (190)
https://www.selleckchem.com/products/2-deoxyadenosine-5-monophosphate.html

$$$$

csChFnd80/01042310162D

 20 21  0  0  0  0  0  0  0  0999 V2000
    5.2611    1.1326    0.0000 P   0  0  0  0  0  0  0  0  0  0  0  0
    2.6555    4.5831    0.0000 O   0  0  0  0  0  0  0  0  0  0  0  0
    0.0000    2.1189    0.0000 O   0  0  0  0  0  0  0  0  0  0  0  0
    4.4382    2.2654    0.0000 O   0  0  0  0  0  0  0  0  0  0  0  0
    3.9477    6.8060    0.0000 O   0  0  0  0  0  0  0  0  0  0  0  0
    6.0840    0.0000    0.0000 O   0  0  0  0  0  0  0  0  0  0  0  0
    6.3937    1.9555    0.0000 O   0  0  0  0  0  0  0  0  0  0  0  0
    4.1285    0.3098    0.0000 O   0  0  0  0  0  0  0  0  0  0  0  0
    1.5229    6.8060    0.0000 N   0  0  0  0  0  0  0  0  0  0  0  0
    2.7353    8.9060    0.0000 N   0  0  0  0  0  0  0  0  0  0  0  0
    1.5229   11.0060    0.0000 N   0  0  0  0  0  0  0  0  0  0  0  0
    0.8229    3.2515    0.0000 C   0  0  2  0  0  0  0  0  0  0  0  0
    2.2229    3.2515    0.0000 C   0  0  1  0  0  0  0  0  0  0  0  0
    0.3903    4.5831    0.0000 C   0  0  0  0  0  0  0  0  0  0  0  0
    1.5229    5.4060    0.0000 C   0  0  1  0  0  0  0  0  0  0  0  0
    3.0459    2.1189    0.0000 C   0  0  0  0  0  0  0  0  0  0  0  0
    0.3105    7.5060    0.0000 C   0  0  0  0  0  0  0  0  0  0  0  0
    2.7353    7.5060    0.0000 C   0  0  0  0  0  0  0  0  0  0  0  0
    0.3105    8.9060    0.0000 C   0  0  0  0  0  0  0  0  0  0  0  0
    1.5229    9.6060    0.0000 C   0  0  0  0  0  0  0  0  0  0  0  0
  1  4  1  0  0  0  0
  1  6  1  0  0  0  0
  1  7  1  0  0  0  0
  1  8  2  0  0  0  0
  2 13  1  0  0  0  0
  2 15  1  0  0  0  0
 12  3  1  1  0  0  0
  4 16  1  0  0  0  0
  5 18  2  0  0  0  0
 15  9  1  6  0  0  0
  9 17  1  0  0  0  0
  9 18  1  0  0  0  0
 10 18  1  0  0  0  0
 10 20  2  0  0  0  0
 11 20  1  0  0  0  0
 12 13  1  0  0  0  0
 12 14  1  0  0  0  0
 13 16  1  6  0  0  0
 14 15  1  0  0  0  0
 17 19  2  0  0  0  0
 19 20  1  0  0  0  0
M  END
>  <Mol_ID> (191)
7498

>  <Formula> (191)
C9H14N3O7P

>  <MolWeight> (191)
307.197121

>  <Cat> (191)
S3268

>  <Name> (191)
2'-Deoxycytidine 5'-monophosphate

>  <Synonyms> (191)
N/A

>  <Target> (191)
others

>  <Form> (191)
Free Base

>  <CAS> (191)
1032-65-1

>  <URL> (191)
https://www.selleckchem.com/products/2-deoxycytidine-5-monophosphate.html

$$$$

csChFnd80/01042310162D

 26 25  0  0  0  0  0  0  0  0999 V2000
    4.3964   11.2259    0.0000 P   0  0  0  0  0  0  0  0  0  0  0  0
    1.6284   12.4983    0.0000 Na  0  3  0  0  0  0  0  0  0  0  0  0
    6.8453   11.6607    0.0000 Na  0  3  0  0  0  0  0  0  0  0  0  0
    3.4937    6.3915    0.0000 O   0  0  0  0  0  0  0  0  0  0  0  0
    6.7780    4.8628    0.0000 O   0  0  0  0  0  0  0  0  0  0  0  0
    6.7833    7.9087    0.0000 O   0  0  0  0  0  0  0  0  0  0  0  0
    4.8268    9.8938    0.0000 O   0  0  0  0  0  0  0  0  0  0  0  0
    1.3424    0.0000    0.0000 O   0  0  0  0  0  0  0  0  0  0  0  0
    3.9662   12.5581    0.0000 O   0  5  0  0  0  0  0  0  0  0  0  0
    5.7287   11.6563    0.0000 O   0  5  0  0  0  0  0  0  0  0  0  0
    3.0642   10.7957    0.0000 O   0  0  0  0  0  0  0  0  0  0  0  0
    0.0000    7.0175    0.0000 O   0  0  0  0  0  0  0  0  0  0  0  0
    3.8797    3.9266    0.0000 N   0  0  0  0  0  0  0  0  0  0  0  0
    3.8797    1.6734    0.0000 N   0  0  0  0  0  0  0  0  0  0  0  0
    1.3424    4.2000    0.0000 N   0  0  0  0  0  0  0  0  0  0  0  0
    0.1300    2.1000    0.0000 N   0  0  0  0  0  0  0  0  0  0  0  0
    5.6468    5.6877    0.0000 C   0  0  2  0  0  0  0  0  0  0  0  0
    5.6493    7.0877    0.0000 C   0  0  1  0  0  0  0  0  0  0  0  0
    4.3145    5.2573    0.0000 C   0  0  1  0  0  0  0  0  0  0  0  0
    4.3184    7.5227    0.0000 C   0  0  1  0  0  0  0  0  0  0  0  0
    3.8882    8.8550    0.0000 C   0  0  0  0  0  0  0  0  0  0  0  0
    2.5550    3.5000    0.0000 C   0  0  0  0  0  0  0  0  0  0  0  0
    4.6967    2.8000    0.0000 C   0  0  0  0  0  0  0  0  0  0  0  0
    2.5550    2.1000    0.0000 C   0  0  0  0  0  0  0  0  0  0  0  0
    1.3424    1.4000    0.0000 C   0  0  0  0  0  0  0  0  0  0  0  0
    0.1300    3.5000    0.0000 C   0  0  0  0  0  0  0  0  0  0  0  0
  1  7  1  0  0  0  0
  1  9  1  0  0  0  0
  1 10  1  0  0  0  0
  1 11  2  0  0  0  0
  4 19  1  0  0  0  0
  4 20  1  0  0  0  0
 17  5  1  1  0  0  0
 18  6  1  1  0  0  0
  7 21  1  0  0  0  0
  8 25  2  0  0  0  0
 19 13  1  6  0  0  0
 13 22  1  0  0  0  0
 13 23  1  0  0  0  0
 14 23  2  0  0  0  0
 14 24  1  0  0  0  0
 15 22  1  0  0  0  0
 15 26  2  0  0  0  0
 16 25  1  0  0  0  0
 16 26  1  0  0  0  0
 17 18  1  0  0  0  0
 17 19  1  0  0  0  0
 18 20  1  0  0  0  0
 20 21  1  6  0  0  0
 22 24  2  0  0  0  0
 24 25  1  0  0  0  0
M  END
>  <Mol_ID> (192)
7516

>  <Formula> (192)
C10H13N4Na2O9P

>  <MolWeight> (192)
410.184921

>  <Cat> (192)
S3327

>  <Name> (192)
Disodium 5'-inosinate monohydrate

>  <Synonyms> (192)
Inosine 5'-monophosphate disodium salt hydrate

>  <Target> (192)
others

>  <Form> (192)
Monohydrate

>  <CAS> (192)
352195-40-5

>  <URL> (192)
https://www.selleckchem.com/products/disodium-5-inosinate-monohydrate.html

$$$$

csChFnd80/01042310162D

 27 26  0  0  0  0  0  0  0  0999 V2000
    1.2124    2.1073    0.0000 N   0  0  0  0  0  0  0  0  0  0  0  0
    1.2124    0.7024    0.0000 C   0  0  0  0  0  0  0  0  0  0  0  0
    2.4291    0.0000    0.0000 C   0  0  0  0  0  0  0  0  0  0  0  0
    3.6458    0.7024    0.0000 C   0  0  0  0  0  0  0  0  0  0  0  0
    3.6458    2.1073    0.0000 N   0  0  0  0  0  0  0  0  0  0  0  0
    2.4291    2.8098    0.0000 C   0  0  0  0  0  0  0  0  0  0  0  0
    2.4291    4.2098    0.0000 O   0  0  0  0  0  0  0  0  0  0  0  0
    0.0000    0.0024    0.0000 O   0  0  0  0  0  0  0  0  0  0  0  0
    4.8582    2.8073    0.0000 C   0  0  2  0  0  0  0  0  0  0  0  0
    6.1416    2.2359    0.0000 O   0  0  0  0  0  0  0  0  0  0  0  0
    7.0816    3.2799    0.0000 C   0  0  1  0  0  0  0  0  0  0  0  0
    6.3792    4.4966    0.0000 C   0  0  2  0  0  0  0  0  0  0  0  0
    5.0050    4.2045    0.0000 C   0  0  1  0  0  0  0  0  0  0  0  0
    8.4740    3.1336    0.0000 C   0  0  0  0  0  0  0  0  0  0  0  0
    9.2969    4.2662    0.0000 O   0  0  0  0  0  0  0  0  0  0  0  0
   10.6892    4.1199    0.0000 P   0  0  3  0  0  0  0  0  0  0  0  0
   12.0815    3.9735    0.0000 O   0  5  0  0  0  0  0  0  0  0  0  0
   12.6839    4.8027    0.0000 O   0  0  0  0  0  0  0  0  0  0  0  0
   12.1145    6.0816    0.0000 P   0  0  3  0  0  0  0  0  0  0  0  0
   10.8355    5.5122    0.0000 O   0  0  0  0  0  0  0  0  0  0  0  0
   11.5451    7.3606    0.0000 O   0  5  0  0  0  0  0  0  0  0  0  0
   13.3935    6.6511    0.0000 O   0  0  0  0  0  0  0  0  0  0  0  0
   10.5429    2.7275    0.0000 O   0  0  0  0  0  0  0  0  0  0  0  0
    3.9646    5.1413    0.0000 O   0  0  0  0  0  0  0  0  0  0  0  0
    6.9486    5.7756    0.0000 O   0  0  0  0  0  0  0  0  0  0  0  0
   11.9678    3.0171    0.0000 Na  0  3  0  0  0  0  0  0  0  0  0  0
    9.4020    7.4122    0.0000 Na  0  3  0  0  0  0  0  0  0  0  0  0
  1  2  1  0  0  0  0
  2  3  1  0  0  0  0
  3  4  2  0  0  0  0
  4  5  1  0  0  0  0
  5  6  1  0  0  0  0
  6  1  1  0  0  0  0
  6  7  2  0  0  0  0
  2  8  2  0  0  0  0
  9 10  1  0  0  0  0
 10 11  1  0  0  0  0
 11 12  1  0  0  0  0
 12 13  1  0  0  0  0
 13  9  1  0  0  0  0
 14 15  1  0  0  0  0
 15 16  1  0  0  0  0
 16 17  1  0  0  0  0
 18 19  2  0  0  0  0
 19 20  1  0  0  0  0
 20 16  1  0  0  0  0
 19 21  1  0  0  0  0
 19 22  1  0  0  0  0
 16 23  2  0  0  0  0
  9  5  1  1  0  0  0
 11 14  1  1  0  0  0
 13 24  1  6  0  0  0
 12 25  1  6  0  0  0
M  END
>  <Mol_ID> (193)
7552

>  <Formula> (193)
C9H12N2Na2O12P2

>  <MolWeight> (193)
448.124842

>  <Cat> (193)
S3368

>  <Name> (193)
Uridine-5'-diphosphate disodium salt

>  <Synonyms> (193)
UDP disodium salt

>  <Target> (193)
P2 Receptor

>  <Form> (193)
Disodium salt

>  <CAS> (193)
27821-45-0

>  <URL> (193)
https://www.selleckchem.com/products/uridine-5-diphosphate-disodium-salt.html

$$$$

csChFnd80/01042310162D

 26 28  0  0  0  0  0  0  0  0999 V2000
   10.1550    5.8533    0.0000 N   0  0  0  0  0  0  0  0  0  0  0  0
   11.4912    6.2777    0.0000 C   0  0  0  0  0  0  0  0  0  0  0  0
    9.7139    4.5246    0.0000 C   0  0  2  0  0  0  0  0  0  0  0  0
    9.3391    6.9910    0.0000 C   0  0  0  0  0  0  0  0  0  0  0  0
   11.4957    7.6777    0.0000 C   0  0  0  0  0  0  0  0  0  0  0  0
   12.6999    5.5748    0.0000 N   0  0  0  0  0  0  0  0  0  0  0  0
    8.3784    4.0980    0.0000 O   0  0  0  0  0  0  0  0  0  0  0  0
   10.5299    3.3748    0.0000 C   0  0  1  0  0  0  0  0  0  0  0  0
   10.1690    8.1185    0.0000 N   0  0  0  0  0  0  0  0  0  0  0  0
   12.7168    8.3748    0.0000 C   0  0  0  0  0  0  0  0  0  0  0  0
   13.9106    6.2687    0.0000 C   0  0  0  0  0  0  0  0  0  0  0  0
    8.3733    2.7002    0.0000 C   0  0  1  0  0  0  0  0  0  0  0  0
    9.7000    2.2594    0.0000 C   0  0  1  0  0  0  0  0  0  0  0  0
   11.9298    3.3748    0.0000 O   0  0  0  0  0  0  0  0  0  0  0  0
   13.9260    7.6687    0.0000 N   0  0  0  0  0  0  0  0  0  0  0  0
   12.7168    9.7748    0.0000 N   0  0  0  0  0  0  0  0  0  0  0  0
    7.2376    1.8816    0.0000 C   0  0  0  0  0  0  0  0  0  0  0  0
   10.1238    0.9251    0.0000 O   0  0  0  0  0  0  0  0  0  0  0  0
    5.9608    2.4558    0.0000 S   0  0  0  0  0  0  0  0  0  0  0  0
    4.8251    1.6372    0.0000 C   0  0  0  0  0  0  0  0  0  0  0  0
    3.5483    2.2115    0.0000 C   0  0  0  0  0  0  0  0  0  0  0  0
    2.4125    1.3929    0.0000 C   0  0  1  0  0  0  0  0  0  0  0  0
    1.1357    1.9671    0.0000 C   0  0  0  0  0  0  0  0  0  0  0  0
    2.5536    0.0000    0.0000 N   0  0  0  0  0  0  0  0  0  0  0  0
    0.0000    1.1485    0.0000 O   0  0  0  0  0  0  0  0  0  0  0  0
    0.9946    3.3600    0.0000 O   0  0  0  0  0  0  0  0  0  0  0  0
  1  2  1  0  0  0  0
  3  1  1  1  0  0  0
  1  4  1  0  0  0  0
  2  5  2  0  0  0  0
  2  6  1  0  0  0  0
  3  7  1  0  0  0  0
  3  8  1  0  0  0  0
  4  9  2  0  0  0  0
  5 10  1  0  0  0  0
  5  9  1  0  0  0  0
  6 11  2  0  0  0  0
  7 12  1  0  0  0  0
  8 13  1  0  0  0  0
  8 14  1  6  0  0  0
 10 15  2  0  0  0  0
 10 16  1  0  0  0  0
 11 15  1  0  0  0  0
 12 17  1  1  0  0  0
 12 13  1  0  0  0  0
 13 18  1  6  0  0  0
 17 19  1  0  0  0  0
 19 20  1  0  0  0  0
 20 21  1  0  0  0  0
 21 22  1  0  0  0  0
 22 23  1  0  0  0  0
 22 24  1  6  0  0  0
 23 25  1  0  0  0  0
 23 26  2  0  0  0  0
M  END
>  <Mol_ID> (194)
7581

>  <Formula> (194)
C14H20N6O5S

>  <MolWeight> (194)
384.4108

>  <Cat> (194)
S7868

>  <Name> (194)
S-Adenosyl-L-homocysteine (SAH)

>  <Synonyms> (194)
S-Adenosylhomocysteine, AdoHcy, Formycinylhomocysteine

>  <Target> (194)
Histone Methyltransferase

>  <Form> (194)
Free Base

>  <CAS> (194)
979-92-0

>  <URL> (194)
https://www.selleckchem.com/products/s-adenosyl-l-homocysteine.html

$$$$

csChFnd80/01042310162D

 20 20  0  0  0  0  0  0  0  0999 V2000
    7.7943    1.3307    0.0000 P   0  0  0  0  0  0  0  0  0  0  0  0
    5.9894    2.9501    0.0000 O   0  0  0  0  0  0  0  0  0  0  0  0
    8.2293    0.0000    0.0000 O   0  0  0  0  0  0  0  0  0  0  0  0
    9.1250    1.7656    0.0000 O   0  0  0  0  0  0  0  0  0  0  0  0
    6.4636    0.8957    0.0000 O   0  0  0  0  0  0  0  0  0  0  0  0
    3.0415    2.9903    0.0000 O   0  0  0  0  0  0  0  0  0  0  0  0
    3.7497    5.9004    0.0000 N   0  0  0  0  0  0  0  0  0  0  0  0
    3.7497    8.1535    0.0000 N   0  0  0  0  0  0  0  0  0  0  0  0
    1.2126    5.6269    0.0000 N   0  0  0  0  0  0  0  0  0  0  0  0
    0.0000    7.7270    0.0000 N   0  0  0  0  0  0  0  0  0  0  0  0
    1.2126    9.8270    0.0000 N   0  0  0  0  0  0  0  0  0  0  0  0
    5.5546    4.2808    0.0000 C   0  0  1  0  0  0  0  0  0  0  0  0
    4.1846    4.5695    0.0000 C   0  0  0  0  0  0  0  0  0  0  0  0
    2.4250    6.3269    0.0000 C   0  0  0  0  0  0  0  0  0  0  0  0
    6.4895    5.3228    0.0000 C   0  0  0  0  0  0  0  0  0  0  0  0
    2.4250    7.7270    0.0000 C   0  0  0  0  0  0  0  0  0  0  0  0
    4.5667    7.0269    0.0000 C   0  0  0  0  0  0  0  0  0  0  0  0
    7.3593    2.6614    0.0000 C   0  0  0  0  0  0  0  0  0  0  0  0
    1.2126    8.4270    0.0000 C   0  0  0  0  0  0  0  0  0  0  0  0
    0.0000    6.3269    0.0000 C   0  0  0  0  0  0  0  0  0  0  0  0
  1  3  1  0  0  0  0
  1  4  1  0  0  0  0
  1  5  2  0  0  0  0
  1 18  1  0  0  0  0
 12  2  1  1  0  0  0
  2 18  1  0  0  0  0
  7 13  1  0  0  0  0
  7 14  1  0  0  0  0
  7 17  1  0  0  0  0
  8 16  1  0  0  0  0
  8 17  2  0  0  0  0
  9 14  2  0  0  0  0
  9 20  1  0  0  0  0
 10 19  1  0  0  0  0
 10 20  2  0  0  0  0
 11 19  1  0  0  0  0
 12 13  1  0  0  0  0
 12 15  1  0  0  0  0
 14 16  1  0  0  0  0
 16 19  2  0  0  0  0
M  END
>  <Mol_ID> (195)
7625

>  <Formula> (195)
C9H16N5O5P

>  <MolWeight> (195)
305.227601

>  <Cat> (195)
S4879

>  <Name> (195)
Tenofovir hydrate

>  <Synonyms> (195)
GS-1278 hydrate

>  <Target> (195)
Reverse Transcriptase

>  <Form> (195)
Hydrate

>  <CAS> (195)
206184-49-8

>  <URL> (195)
http://www.selleckchem.com/products/tenofovir-hydrate.html

$$$$

csChFnd80/01042310162D

 41 42  0  0  0  0  0  0  0  0999 V2000
   10.5839    7.6500    0.0000 P   0  0  2  0  0  0  0  0  0  0  0  0
    8.1589    7.6498    0.0000 O   0  0  0  0  0  0  0  0  0  0  0  0
   11.2839    8.8624    0.0000 O   0  0  0  0  0  0  0  0  0  0  0  0
    9.8839    6.4376    0.0000 O   0  0  0  0  0  0  0  0  0  0  0  0
   13.0092    3.4504    0.0000 O   0  0  0  0  0  0  0  0  0  0  0  0
   14.2219    5.5502    0.0000 O   0  0  0  0  0  0  0  0  0  0  0  0
    9.9575    1.4000    0.0000 O   0  0  0  0  0  0  0  0  0  0  0  0
    3.8953    2.1000    0.0000 O   0  0  0  0  0  0  0  0  0  0  0  0
    8.7451    3.5000    0.0000 O   0  0  0  0  0  0  0  0  0  0  0  0
    5.1078    0.0000    0.0000 O   0  0  0  0  0  0  0  0  0  0  0  0
    4.5219    8.3492    0.0000 N   0  0  0  0  0  0  0  0  0  0  0  0
   11.7964    6.9499    0.0000 N   0  0  0  0  0  0  0  0  0  0  0  0
    3.0062   10.0326    0.0000 N   0  0  0  0  0  0  0  0  0  0  0  0
    2.8103    6.4483    0.0000 N   0  0  0  0  0  0  0  0  0  0  0  0
    0.5042    7.1976    0.0000 N   0  0  0  0  0  0  0  0  0  0  0  0
    0.0000    9.5695    0.0000 N   0  0  0  0  0  0  0  0  0  0  0  0
    6.9468    8.3497    0.0000 C   0  0  1  0  0  0  0  0  0  0  0  0
    5.7340    7.6495    0.0000 C   0  0  0  0  0  0  0  0  0  0  0  0
    9.3716    8.3499    0.0000 C   0  0  0  0  0  0  0  0  0  0  0  0
   11.7964    5.5502    0.0000 C   0  0  1  0  0  0  0  0  0  0  0  0
    6.9468    9.7492    0.0000 C   0  0  0  0  0  0  0  0  0  0  0  0
    3.2430    7.7798    0.0000 C   0  0  0  0  0  0  0  0  0  0  0  0
    4.3756    9.7416    0.0000 C   0  0  0  0  0  0  0  0  0  0  0  0
   10.5843    4.8504    0.0000 C   0  0  0  0  0  0  0  0  0  0  0  0
    2.3062    8.8202    0.0000 C   0  0  0  0  0  0  0  0  0  0  0  0
   13.0092    4.8500    0.0000 C   0  0  0  0  0  0  0  0  0  0  0  0
   12.6838    8.8624    0.0000 C   0  0  0  0  0  0  0  0  0  0  0  0
    0.9368    8.5291    0.0000 C   0  0  0  0  0  0  0  0  0  0  0  0
   14.2220    2.7502    0.0000 C   0  0  0  0  0  0  0  0  0  0  0  0
   13.3861    7.6460    0.0000 C   0  0  0  0  0  0  0  0  0  0  0  0
   13.3863   10.0794    0.0000 C   0  0  0  0  0  0  0  0  0  0  0  0
    1.4409    6.1572    0.0000 C   0  0  0  0  0  0  0  0  0  0  0  0
   14.2220    1.3506    0.0000 C   0  0  0  0  0  0  0  0  0  0  0  0
   15.4348    3.4504    0.0000 C   0  0  0  0  0  0  0  0  0  0  0  0
   14.7913    7.6460    0.0000 C   0  0  0  0  0  0  0  0  0  0  0  0
   14.7907   10.0794    0.0000 C   0  0  0  0  0  0  0  0  0  0  0  0
   15.4939    8.8630    0.0000 C   0  0  0  0  0  0  0  0  0  0  0  0
    7.5326    1.4000    0.0000 C   0  0  0  0  0  0  0  0  0  0  0  0
    6.3202    2.1000    0.0000 C   0  0  0  0  0  0  0  0  0  0  0  0
    8.7451    2.1000    0.0000 C   0  0  0  0  0  0  0  0  0  0  0  0
    5.1078    1.4000    0.0000 C   0  0  0  0  0  0  0  0  0  0  0  0
  1  3  1  0  0  0  0
  1  4  2  0  0  0  0
  1 12  1  6  0  0  0
  1 19  1  0  0  0  0
 17  2  1  0  0  0  0
  2 19  1  0  0  0  0
  3 27  1  0  0  0  0
  5 26  1  0  0  0  0
  5 29  1  0  0  0  0
  6 26  2  0  0  0  0
  7 40  1  0  0  0  0
  8 41  1  0  0  0  0
  9 40  2  0  0  0  0
 10 41  2  0  0  0  0
 11 18  1  0  0  0  0
 11 22  1  0  0  0  0
 11 23  1  0  0  0  0
 20 12  1  0  0  0  0
 13 23  2  0  0  0  0
 13 25  1  0  0  0  0
 14 22  2  0  0  0  0
 14 32  1  0  0  0  0
 15 28  1  0  0  0  0
 15 32  2  0  0  0  0
 16 28  1  0  0  0  0
 17 18  1  0  0  0  0
 17 21  1  1  0  0  0
 20 24  1  6  0  0  0
 20 26  1  0  0  0  0
 22 25  1  0  0  0  0
 25 28  2  0  0  0  0
 27 30  2  0  0  0  0
 27 31  1  0  0  0  0
 29 33  1  0  0  0  0
 29 34  1  0  0  0  0
 30 35  1  0  0  0  0
 31 36  2  0  0  0  0
 35 37  2  0  0  0  0
 36 37  1  0  0  0  0
 38 39  2  0  0  0  0
 38 40  1  0  0  0  0
 39 41  1  0  0  0  0
M  END
>  <Mol_ID> (196)
7667

>  <Formula> (196)
C25H33N6O9P

>  <MolWeight> (196)
592.538081

>  <Cat> (196)
S4428

>  <Name> (196)
Tenofovir alafenamide fumarate

>  <Synonyms> (196)
TAF fumarate, GS-7340 fumarate

>  <Target> (196)
Reverse Transcriptase

>  <Form> (196)
Fumarate

>  <CAS> (196)
379270-38-9

>  <URL> (196)
http://www.selleckchem.com/products/tenofovir-alafenamide-fumarate.html

$$$$

csChFnd80/01042310162D

 17 19  0  0  0  0  0  0  0  0999 V2000
    3.3637    6.3916    0.0000 O   0  0  0  0  0  0  0  0  0  0  0  0
    4.6968    9.8937    0.0000 O   0  0  0  0  0  0  0  0  0  0  0  0
    3.7497    3.9267    0.0000 N   0  0  0  0  0  0  0  0  0  0  0  0
    3.7497    1.6733    0.0000 N   0  0  0  0  0  0  0  0  0  0  0  0
    1.2124    4.2001    0.0000 N   0  0  0  0  0  0  0  0  0  0  0  0
    0.0000    2.1000    0.0000 N   0  0  0  0  0  0  0  0  0  0  0  0
    1.2124    0.0000    0.0000 N   0  0  0  0  0  0  0  0  0  0  0  0
    4.1846    5.2574    0.0000 C   0  0  1  0  0  0  0  0  0  0  0  0
    5.5168    5.6878    0.0000 C   0  0  0  0  0  0  0  0  0  0  0  0
    5.5192    7.0878    0.0000 C   0  0  0  0  0  0  0  0  0  0  0  0
    4.1885    7.5228    0.0000 C   0  0  1  0  0  0  0  0  0  0  0  0
    3.7582    8.8549    0.0000 C   0  0  0  0  0  0  0  0  0  0  0  0
    2.4249    3.5001    0.0000 C   0  0  0  0  0  0  0  0  0  0  0  0
    4.5668    2.8001    0.0000 C   0  0  0  0  0  0  0  0  0  0  0  0
    2.4249    2.1000    0.0000 C   0  0  0  0  0  0  0  0  0  0  0  0
    1.2124    1.4000    0.0000 C   0  0  0  0  0  0  0  0  0  0  0  0
    0.0000    3.5001    0.0000 C   0  0  0  0  0  0  0  0  0  0  0  0
  1  8  1  0  0  0  0
  1 11  1  0  0  0  0
  2 12  1  0  0  0  0
  8  3  1  6  0  0  0
  3 13  1  0  0  0  0
  3 14  1  0  0  0  0
  4 14  2  0  0  0  0
  4 15  1  0  0  0  0
  5 13  2  0  0  0  0
  5 17  1  0  0  0  0
  6 16  1  0  0  0  0
  6 17  2  0  0  0  0
  7 16  1  0  0  0  0
  8  9  1  0  0  0  0
  9 10  1  0  0  0  0
 10 11  1  0  0  0  0
 11 12  1  6  0  0  0
 13 15  1  0  0  0  0
 15 16  2  0  0  0  0
M  END
>  <Mol_ID> (197)
7669

>  <Formula> (197)
C10H13N5O2

>  <MolWeight> (197)
235.24252

>  <Cat> (197)
S5979

>  <Name> (197)
2',3'-Dideoxyadenosine

>  <Synonyms> (197)
ddA, ddAdo

>  <Target> (197)
Anti-infection

>  <Form> (197)
Free Base

>  <CAS> (197)
4097-22-7

>  <URL> (197)
http://www.selleckchem.com/products/2-3-dideoxyadenosine.html

$$$$

csChFnd80/01042310162D

 31 33  0  0  0  0  0  0  0  0999 V2000
    9.0830    8.1731    0.0000 P   0  0  3  0  0  0  0  0  0  0  0  0
   11.4950    8.4225    0.0000 P   0  0  3  0  0  0  0  0  0  0  0  0
   13.9071    8.6719    0.0000 P   0  0  0  0  0  0  0  0  0  0  0  0
    5.5346    5.6979    0.0000 O   0  0  0  0  0  0  0  0  0  0  0  0
    1.9740    6.4053    0.0000 O   0  0  0  0  0  0  0  0  0  0  0  0
    3.7712    8.8715    0.0000 O   0  0  0  0  0  0  0  0  0  0  0  0
    7.9490    7.3521    0.0000 O   0  0  0  0  0  0  0  0  0  0  0  0
   10.2170    8.9941    0.0000 O   0  0  0  0  0  0  0  0  0  0  0  0
    9.4650    7.0391    0.0000 O   0  0  0  0  0  0  0  0  0  0  0  0
    8.2621    9.3071    0.0000 O   0  0  0  0  0  0  0  0  0  0  0  0
   12.7730    7.8509    0.0000 O   0  0  0  0  0  0  0  0  0  0  0  0
   11.6276    9.9932    0.0000 O   0  0  0  0  0  0  0  0  0  0  0  0
   10.9234    7.1445    0.0000 O   0  0  0  0  0  0  0  0  0  0  0  0
   15.0411    9.4928    0.0000 O   0  0  0  0  0  0  0  0  0  0  0  0
   14.7280    7.5378    0.0000 O   0  0  0  0  0  0  0  0  0  0  0  0
   13.0861    9.8059    0.0000 O   0  0  0  0  0  0  0  0  0  0  0  0
    3.7627    3.9354    0.0000 N   0  0  0  0  0  0  0  0  0  0  0  0
    3.7627    1.6744    0.0000 N   0  0  0  0  0  0  0  0  0  0  0  0
    1.2166    4.2098    0.0000 N   0  0  0  0  0  0  0  0  0  0  0  0
    0.0000    2.1025    0.0000 N   0  0  0  0  0  0  0  0  0  0  0  0
    1.2166    0.0000    0.0000 N   0  0  0  0  0  0  0  0  0  0  0  0
    3.3740    6.4053    0.0000 C   0  0  2  0  0  0  0  0  0  0  0  0
    4.2016    7.5393    0.0000 C   0  0  1  0  0  0  0  0  0  0  0  0
    4.1977    5.2661    0.0000 C   0  0  1  0  0  0  0  0  0  0  0  0
    5.5370    7.1028    0.0000 C   0  0  1  0  0  0  0  0  0  0  0  0
    6.6710    7.9237    0.0000 C   0  0  0  0  0  0  0  0  0  0  0  0
    2.4333    3.5074    0.0000 C   0  0  0  0  0  0  0  0  0  0  0  0
    4.5826    2.8049    0.0000 C   0  0  0  0  0  0  0  0  0  0  0  0
    2.4333    2.1025    0.0000 C   0  0  0  0  0  0  0  0  0  0  0  0
    1.2166    1.4000    0.0000 C   0  0  0  0  0  0  0  0  0  0  0  0
    0.0000    3.5074    0.0000 C   0  0  0  0  0  0  0  0  0  0  0  0
  1  7  1  0  0  0  0
  1  8  1  0  0  0  0
  1  9  1  0  0  0  0
  1 10  2  0  0  0  0
  2  8  1  0  0  0  0
  2 11  1  0  0  0  0
  2 12  1  0  0  0  0
  2 13  2  0  0  0  0
  3 11  1  0  0  0  0
  3 14  1  0  0  0  0
  3 15  1  0  0  0  0
  3 16  2  0  0  0  0
  4 24  1  0  0  0  0
  4 25  1  0  0  0  0
 22  5  1  6  0  0  0
 23  6  1  6  0  0  0
  7 26  1  0  0  0  0
 24 17  1  1  0  0  0
 17 27  1  0  0  0  0
 17 28  1  0  0  0  0
 18 28  2  0  0  0  0
 18 29  1  0  0  0  0
 19 27  2  0  0  0  0
 19 31  1  0  0  0  0
 20 30  1  0  0  0  0
 20 31  2  0  0  0  0
 21 30  1  0  0  0  0
 22 23  1  0  0  0  0
 22 24  1  0  0  0  0
 23 25  1  0  0  0  0
 25 26  1  1  0  0  0
 27 29  1  0  0  0  0
 29 30  2  0  0  0  0
M  END
>  <Mol_ID> (198)
7700

>  <Formula> (198)
C10H16N5O13P3

>  <MolWeight> (198)
507.181023

>  <Cat> (198)
S5260

>  <Name> (198)
ATP

>  <Synonyms> (198)
Adenosine-Triphosphate, Adenosine 5'-triphosphate

>  <Target> (198)
Immunology & Inflammation related

>  <Form> (198)
Free Base

>  <CAS> (198)
56-65-5

>  <URL> (198)
http://www.selleckchem.com/products/atp.html

$$$$

csChFnd80/01042310162D

 21 23  0  0  0  0  0  0  0  0999 V2000
    7.9320    1.5106    0.0000 O   0  0  0  0  0  0  0  0  0  0  0  0
    6.6530    0.9411    0.0000 C   0  0  0  0  0  0  0  0  0  0  0  0
    5.5204    1.7640    0.0000 C   0  0  2  0  0  0  0  0  0  0  0  0
    4.1890    1.3314    0.0000 C   0  0  2  0  0  0  0  0  0  0  0  0
    3.3661    2.4640    0.0000 C   0  0  1  0  0  0  0  0  0  0  0  0
    1.9661    2.4640    0.0000 O   0  0  0  0  0  0  0  0  0  0  0  0
    4.1890    3.5967    0.0000 C   0  0  1  0  0  0  0  0  0  0  0  0
    5.5204    3.1640    0.0000 O   0  0  0  0  0  0  0  0  0  0  0  0
    3.7562    4.9282    0.0000 N   0  0  0  0  0  0  0  0  0  0  0  0
    4.5793    6.0607    0.0000 C   0  0  0  0  0  0  0  0  0  0  0  0
    3.7562    7.1935    0.0000 N   0  0  0  0  0  0  0  0  0  0  0  0
    2.4248    6.7607    0.0000 C   0  0  0  0  0  0  0  0  0  0  0  0
    1.2125    7.4607    0.0000 C   0  0  0  0  0  0  0  0  0  0  0  0
    1.2125    8.8607    0.0000 N   0  0  0  0  0  0  0  0  0  0  0  0
    0.0000    6.7607    0.0000 N   0  0  0  0  0  0  0  0  0  0  0  0
    0.0000    5.3607    0.0000 C   0  0  0  0  0  0  0  0  0  0  0  0
    1.2125    4.6607    0.0000 N   0  0  0  0  0  0  0  0  0  0  0  0
    2.4248    5.3607    0.0000 C   0  0  0  0  0  0  0  0  0  0  0  0
    2.4248    9.5607    0.0000 C   0  0  0  0  0  0  0  0  0  0  0  0
    0.0000    9.5607    0.0000 C   0  0  0  0  0  0  0  0  0  0  0  0
    3.7562    0.0000    0.0000 N   0  0  0  0  0  0  0  0  0  0  0  0
  1  2  1  0  0  0  0
  3  2  1  6  0  0  0
  3  4  1  0  0  0  0
  4  5  1  0  0  0  0
  5  6  1  1  0  0  0
  5  7  1  0  0  0  0
  7  8  1  0  0  0  0
  3  8  1  0  0  0  0
  7  9  1  6  0  0  0
  9 10  1  0  0  0  0
 10 11  2  0  0  0  0
 11 12  1  0  0  0  0
 12 13  2  0  0  0  0
 13 14  1  0  0  0  0
 13 15  1  0  0  0  0
 15 16  2  0  0  0  0
 16 17  1  0  0  0  0
 17 18  2  0  0  0  0
 12 18  1  0  0  0  0
  9 18  1  0  0  0  0
 14 19  1  0  0  0  0
 14 20  1  0  0  0  0
  4 21  1  1  0  0  0
M  END
>  <Mol_ID> (199)
7704

>  <Formula> (199)
C12H18N6O3

>  <MolWeight> (199)
294.30972

>  <Cat> (199)
S9631

>  <Name> (199)
Puromycin aminonucleoside

>  <Synonyms> (199)
NSC 3056, PAN, Stylomycin aminonucleoside, ARDMA, SAN

>  <Target> (199)
DPP-2

>  <Form> (199)
Free Base

>  <CAS> (199)
58-60-6

>  <URL> (199)
http://www.selleckchem.com/products/puromycin-aminonucleoside.html

$$$$

csChFnd80/01042310162D

 74 77  0  0  0  0  0  0  0  0999 V2000
   10.6160   16.5006    0.0000 P   0  0  2  0  0  0  0  0  0  0  0  0
    8.2015   16.5046    0.0000 O   0  0  0  0  0  0  0  0  0  0  0  0
   11.3136   17.7088    0.0000 O   0  0  0  0  0  0  0  0  0  0  0  0
    9.9185   15.2923    0.0000 O   0  0  0  0  0  0  0  0  0  0  0  0
   13.0233   12.3063    0.0000 O   0  0  0  0  0  0  0  0  0  0  0  0
   14.2237   14.4035    0.0000 O   0  0  0  0  0  0  0  0  0  0  0  0
   24.5650   10.6266    0.0000 O   0  0  0  0  0  0  0  0  0  0  0  0
   18.5026   11.3266    0.0000 O   0  0  0  0  0  0  0  0  0  0  0  0
   23.3524   12.7267    0.0000 O   0  0  0  0  0  0  0  0  0  0  0  0
   19.7151    9.2266    0.0000 O   0  0  0  0  0  0  0  0  0  0  0  0
    4.5695   17.2154    0.0000 N   0  0  0  0  0  0  0  0  0  0  0  0
   11.8217   15.8045    0.0000 N   0  0  0  0  0  0  0  0  0  0  0  0
    3.0777   18.9089    0.0000 N   0  0  0  0  0  0  0  0  0  0  0  0
    2.8613   15.3347    0.0000 N   0  0  0  0  0  0  0  0  0  0  0  0
    0.5596   16.0979    0.0000 N   0  0  0  0  0  0  0  0  0  0  0  0
    0.0729   18.4692    0.0000 N   0  0  0  0  0  0  0  0  0  0  0  0
    6.9865   17.2061    0.0000 C   0  0  1  0  0  0  0  0  0  0  0  0
    5.7861   16.5130    0.0000 C   0  0  0  0  0  0  0  0  0  0  0  0
    9.4052   17.1996    0.0000 C   0  0  0  0  0  0  0  0  0  0  0  0
   11.8217   14.4042    0.0000 C   0  0  1  0  0  0  0  0  0  0  0  0
    6.9865   18.6103    0.0000 C   0  0  0  0  0  0  0  0  0  0  0  0
    3.3020   16.6637    0.0000 C   0  0  0  0  0  0  0  0  0  0  0  0
    4.4370   18.6102    0.0000 C   0  0  0  0  0  0  0  0  0  0  0  0
    2.3715   17.7097    0.0000 C   0  0  0  0  0  0  0  0  0  0  0  0
   10.6067   13.7027    0.0000 C   0  0  0  0  0  0  0  0  0  0  0  0
   13.0233   13.7105    0.0000 C   0  0  0  0  0  0  0  0  0  0  0  0
   12.7113   17.7088    0.0000 C   0  0  0  0  0  0  0  0  0  0  0  0
    1.0002   17.4268    0.0000 C   0  0  0  0  0  0  0  0  0  0  0  0
   14.2231   11.6136    0.0000 C   0  0  0  0  0  0  0  0  0  0  0  0
    1.4902   15.0519    0.0000 C   0  0  0  0  0  0  0  0  0  0  0  0
   13.4062   16.4859    0.0000 C   0  0  0  0  0  0  0  0  0  0  0  0
   13.4165   18.9108    0.0000 C   0  0  0  0  0  0  0  0  0  0  0  0
   14.2231   10.2085    0.0000 C   0  0  0  0  0  0  0  0  0  0  0  0
   15.4227   12.3062    0.0000 C   0  0  0  0  0  0  0  0  0  0  0  0
   14.8062   16.4800    0.0000 C   0  0  0  0  0  0  0  0  0  0  0  0
   14.8165   18.9048    0.0000 C   0  0  0  0  0  0  0  0  0  0  0  0
   15.5114   17.6894    0.0000 C   0  0  0  0  0  0  0  0  0  0  0  0
   22.1400   10.6266    0.0000 C   0  0  0  0  0  0  0  0  0  0  0  0
   20.9276   11.3266    0.0000 C   0  0  0  0  0  0  0  0  0  0  0  0
   23.3524   11.3266    0.0000 C   0  0  0  0  0  0  0  0  0  0  0  0
   19.7151   10.6266    0.0000 C   0  0  0  0  0  0  0  0  0  0  0  0
   10.5431    6.2921    0.0000 P   0  0  2  0  0  0  0  0  0  0  0  0
    8.1285    6.2962    0.0000 O   0  0  0  0  0  0  0  0  0  0  0  0
   11.2407    7.5004    0.0000 O   0  0  0  0  0  0  0  0  0  0  0  0
    9.8455    5.0839    0.0000 O   0  0  0  0  0  0  0  0  0  0  0  0
   12.9504    2.0979    0.0000 O   0  0  0  0  0  0  0  0  0  0  0  0
   14.1508    4.1951    0.0000 O   0  0  0  0  0  0  0  0  0  0  0  0
    4.4966    7.0070    0.0000 N   0  0  0  0  0  0  0  0  0  0  0  0
   11.7488    5.5960    0.0000 N   0  0  0  0  0  0  0  0  0  0  0  0
    3.0048    8.7005    0.0000 N   0  0  0  0  0  0  0  0  0  0  0  0
    2.7884    5.1263    0.0000 N   0  0  0  0  0  0  0  0  0  0  0  0
    0.4867    5.8895    0.0000 N   0  0  0  0  0  0  0  0  0  0  0  0
    0.0000    8.2607    0.0000 N   0  0  0  0  0  0  0  0  0  0  0  0
    6.9136    6.9976    0.0000 C   0  0  1  0  0  0  0  0  0  0  0  0
    5.7132    6.3046    0.0000 C   0  0  0  0  0  0  0  0  0  0  0  0
    9.3323    6.9912    0.0000 C   0  0  0  0  0  0  0  0  0  0  0  0
   11.7488    4.1957    0.0000 C   0  0  1  0  0  0  0  0  0  0  0  0
    6.9136    8.4018    0.0000 C   0  0  0  0  0  0  0  0  0  0  0  0
    3.2291    6.4552    0.0000 C   0  0  0  0  0  0  0  0  0  0  0  0
    4.3640    8.4018    0.0000 C   0  0  0  0  0  0  0  0  0  0  0  0
    2.2986    7.5013    0.0000 C   0  0  0  0  0  0  0  0  0  0  0  0
   10.5338    3.4943    0.0000 C   0  0  0  0  0  0  0  0  0  0  0  0
   12.9504    3.5020    0.0000 C   0  0  0  0  0  0  0  0  0  0  0  0
   12.6384    7.5004    0.0000 C   0  0  0  0  0  0  0  0  0  0  0  0
    0.9273    7.2183    0.0000 C   0  0  0  0  0  0  0  0  0  0  0  0
   14.1502    1.4051    0.0000 C   0  0  0  0  0  0  0  0  0  0  0  0
    1.4173    4.8434    0.0000 C   0  0  0  0  0  0  0  0  0  0  0  0
   13.3332    6.2775    0.0000 C   0  0  0  0  0  0  0  0  0  0  0  0
   13.3436    8.7024    0.0000 C   0  0  0  0  0  0  0  0  0  0  0  0
   14.1502    0.0000    0.0000 C   0  0  0  0  0  0  0  0  0  0  0  0
   15.3498    2.0977    0.0000 C   0  0  0  0  0  0  0  0  0  0  0  0
   14.7332    6.2716    0.0000 C   0  0  0  0  0  0  0  0  0  0  0  0
   14.7436    8.6963    0.0000 C   0  0  0  0  0  0  0  0  0  0  0  0
   15.4385    7.4809    0.0000 C   0  0  0  0  0  0  0  0  0  0  0  0
  1  3  1  0  0  0  0
  1  4  2  0  0  0  0
  1 12  1  6  0  0  0
  1 19  1  0  0  0  0
 17  2  1  0  0  0  0
  2 19  1  0  0  0  0
  3 27  1  0  0  0  0
  5 26  1  0  0  0  0
  5 29  1  0  0  0  0
  6 26  2  0  0  0  0
  7 40  1  0  0  0  0
  8 41  1  0  0  0  0
  9 40  2  0  0  0  0
 10 41  2  0  0  0  0
 11 18  1  0  0  0  0
 11 22  1  0  0  0  0
 11 23  1  0  0  0  0
 20 12  1  0  0  0  0
 13 23  2  0  0  0  0
 13 24  1  0  0  0  0
 14 22  2  0  0  0  0
 14 30  1  0  0  0  0
 15 28  1  0  0  0  0
 15 30  2  0  0  0  0
 16 28  1  0  0  0  0
 17 18  1  0  0  0  0
 17 21  1  1  0  0  0
 20 25  1  6  0  0  0
 20 26  1  0  0  0  0
 22 24  1  0  0  0  0
 24 28  2  0  0  0  0
 27 31  2  0  0  0  0
 27 32  1  0  0  0  0
 29 33  1  0  0  0  0
 29 34  1  0  0  0  0
 31 35  1  0  0  0  0
 32 36  2  0  0  0  0
 35 37  2  0  0  0  0
 36 37  1  0  0  0  0
 38 39  2  0  0  0  0
 38 40  1  0  0  0  0
 39 41  1  0  0  0  0
 42 44  1  0  0  0  0
 42 45  2  0  0  0  0
 42 49  1  6  0  0  0
 42 56  1  0  0  0  0
 54 43  1  0  0  0  0
 43 56  1  0  0  0  0
 44 64  1  0  0  0  0
 46 63  1  0  0  0  0
 46 66  1  0  0  0  0
 47 63  2  0  0  0  0
 48 55  1  0  0  0  0
 48 59  1  0  0  0  0
 48 60  1  0  0  0  0
 57 49  1  0  0  0  0
 50 60  2  0  0  0  0
 50 61  1  0  0  0  0
 51 59  2  0  0  0  0
 51 67  1  0  0  0  0
 52 65  1  0  0  0  0
 52 67  2  0  0  0  0
 53 65  1  0  0  0  0
 54 55  1  0  0  0  0
 54 58  1  1  0  0  0
 57 62  1  6  0  0  0
 57 63  1  0  0  0  0
 59 61  1  0  0  0  0
 61 65  2  0  0  0  0
 64 68  2  0  0  0  0
 64 69  1  0  0  0  0
 66 70  1  0  0  0  0
 66 71  1  0  0  0  0
 68 72  1  0  0  0  0
 69 73  2  0  0  0  0
 72 74  2  0  0  0  0
 73 74  1  0  0  0  0
M  END
>  <Mol_ID> (200)
7782

>  <Formula> (200)
C46H62N12O14P2

>  <MolWeight> (200)
1069.004002

>  <Cat> (200)
S4427

>  <Name> (200)
Tenofovir alafenamide hemifumarate

>  <Synonyms> (200)
TAF hemifumarate, GS-7340 hemifumarate

>  <Target> (200)
Reverse Transcriptase

>  <Form> (200)
Hemifumarate

>  <CAS> (200)
1392275-56-7

>  <URL> (200)
http://www.selleckchem.com/products/tenofovir-alafenamide-hemifumarate.html

$$$$

csChFnd80/01042310162D

 35 36  0  0  0  0  0  0  0  0999 V2000
    7.8074    6.1889    0.0000 P   0  0  0  0  0  0  0  0  0  0  0  0
    6.0025    7.8083    0.0000 O   0  0  0  0  0  0  0  0  0  0  0  0
    8.2424    4.8582    0.0000 O   0  0  0  0  0  0  0  0  0  0  0  0
    9.1381    6.6239    0.0000 O   0  0  0  0  0  0  0  0  0  0  0  0
    6.4767    5.7539    0.0000 O   0  0  0  0  0  0  0  0  0  0  0  0
   10.0472    3.2388    0.0000 O   0  0  0  0  0  0  0  0  0  0  0  0
   10.7575    8.4287    0.0000 O   0  0  0  0  0  0  0  0  0  0  0  0
   11.8521    1.6194    0.0000 O   0  0  0  0  0  0  0  0  0  0  0  0
   12.3769   10.2336    0.0000 O   0  0  0  0  0  0  0  0  0  0  0  0
   12.4071    3.9401    0.0000 O   0  0  0  0  0  0  0  0  0  0  0  0
   10.0563   10.7886    0.0000 O   0  0  0  0  0  0  0  0  0  0  0  0
    3.7627   10.7584    0.0000 N   0  0  0  0  0  0  0  0  0  0  0  0
    3.7627   13.0196    0.0000 N   0  0  0  0  0  0  0  0  0  0  0  0
    1.2166   10.4840    0.0000 N   0  0  0  0  0  0  0  0  0  0  0  0
    0.0000   12.5914    0.0000 N   0  0  0  0  0  0  0  0  0  0  0  0
    1.2166   14.6938    0.0000 N   0  0  0  0  0  0  0  0  0  0  0  0
    5.5676    9.1390    0.0000 C   0  0  1  0  0  0  0  0  0  0  0  0
    4.1977    9.4277    0.0000 C   0  0  0  0  0  0  0  0  0  0  0  0
    6.5575   10.1290    0.0000 C   0  0  0  0  0  0  0  0  0  0  0  0
    2.4333   11.1865    0.0000 C   0  0  0  0  0  0  0  0  0  0  0  0
    7.3725    7.5196    0.0000 C   0  0  0  0  0  0  0  0  0  0  0  0
    4.5826   11.8889    0.0000 C   0  0  0  0  0  0  0  0  0  0  0  0
    2.4333   12.5914    0.0000 C   0  0  0  0  0  0  0  0  0  0  0  0
    1.2166   13.2938    0.0000 C   0  0  0  0  0  0  0  0  0  0  0  0
    0.0000   11.1865    0.0000 C   0  0  0  0  0  0  0  0  0  0  0  0
    9.6123    4.5695    0.0000 C   0  0  0  0  0  0  0  0  0  0  0  0
    9.4268    7.9938    0.0000 C   0  0  0  0  0  0  0  0  0  0  0  0
   13.2220    1.3307    0.0000 C   0  0  0  0  0  0  0  0  0  0  0  0
   12.6656   11.6035    0.0000 C   0  0  0  0  0  0  0  0  0  0  0  0
   11.4172    2.9501    0.0000 C   0  0  0  0  0  0  0  0  0  0  0  0
   11.0462    9.7986    0.0000 C   0  0  0  0  0  0  0  0  0  0  0  0
   13.6570    0.0000    0.0000 C   0  0  0  0  0  0  0  0  0  0  0  0
   14.2120    2.3207    0.0000 C   0  0  0  0  0  0  0  0  0  0  0  0
   13.9963   12.0385    0.0000 C   0  0  0  0  0  0  0  0  0  0  0  0
   11.6756   12.5935    0.0000 C   0  0  0  0  0  0  0  0  0  0  0  0
  1  3  1  0  0  0  0
  1  4  1  0  0  0  0
  1  5  2  0  0  0  0
  1 21  1  0  0  0  0
 17  2  1  1  0  0  0
  2 21  1  0  0  0  0
  3 26  1  0  0  0  0
  4 27  1  0  0  0  0
  6 26  1  0  0  0  0
  6 30  1  0  0  0  0
  7 27  1  0  0  0  0
  7 31  1  0  0  0  0
  8 28  1  0  0  0  0
  8 30  1  0  0  0  0
  9 29  1  0  0  0  0
  9 31  1  0  0  0  0
 10 30  2  0  0  0  0
 11 31  2  0  0  0  0
 12 18  1  0  0  0  0
 12 20  1  0  0  0  0
 12 22  1  0  0  0  0
 13 22  2  0  0  0  0
 13 23  1  0  0  0  0
 14 20  2  0  0  0  0
 14 25  1  0  0  0  0
 15 24  1  0  0  0  0
 15 25  2  0  0  0  0
 16 24  1  0  0  0  0
 17 18  1  0  0  0  0
 17 19  1  0  0  0  0
 20 23  1  0  0  0  0
 23 24  2  0  0  0  0
 28 32  1  0  0  0  0
 28 33  1  0  0  0  0
 29 34  1  0  0  0  0
 29 35  1  0  0  0  0
M  END
>  <Mol_ID> (201)
7828

>  <Formula> (201)
C19H30N5O10P

>  <MolWeight> (201)
519.442761

>  <Cat> (201)
S5959

>  <Name> (201)
Tenofovir Disoproxil

>  <Synonyms> (201)
Bis(POC)-PMPA, GS 4331

>  <Target> (201)
Reverse Transcriptase

>  <Form> (201)
Free Base

>  <CAS> (201)
201341-05-1

>  <URL> (201)
http://www.selleckchem.com/products/tenofovir-disoproxil.html

$$$$

csChFnd80/01042310162D

 42 45  0  0  0  0  0  0  0  0999 V2000
    1.9088    9.9236    0.0000 O   0  0  0  0  0  0  0  0  0  0  0  0
    1.6220   11.2930    0.0000 C   0  0  0  0  0  0  0  0  0  0  0  0
    2.6669   12.2302    0.0000 C   0  0  0  0  0  0  0  0  0  0  0  0
    0.2888   11.7309    0.0000 C   0  0  0  0  0  0  0  0  0  0  0  0
    2.3776   13.6044    0.0000 C   0  0  0  0  0  0  0  0  0  0  0  0
    0.0000   13.1049    0.0000 C   0  0  0  0  0  0  0  0  0  0  0  0
    1.0449   14.0411    0.0000 C   0  0  0  0  0  0  0  0  0  0  0  0
    3.2384    9.4872    0.0000 P   0  0  1  0  0  0  0  0  0  0  0  0
    8.0802   10.3739    0.0000 O   0  0  0  0  0  0  0  0  0  0  0  0
    9.5972    7.0728    0.0000 O   0  0  0  0  0  0  0  0  0  0  0  0
    6.5451    7.0811    0.0000 O   0  0  0  0  0  0  0  0  0  0  0  0
    4.5678    9.0508    0.0000 O   0  0  0  0  0  0  0  0  0  0  0  0
    4.2331    4.7436    0.0000 O   0  0  0  0  0  0  0  0  0  0  0  0
    1.9308    5.5001    0.0000 O   0  0  0  0  0  0  0  0  0  0  0  0
   11.2907   10.8468    0.0000 N   0  0  0  0  0  0  0  0  0  0  0  0
   12.3268    9.8863    0.0000 N   0  0  0  0  0  0  0  0  0  0  0  0
    2.8023    8.1584    0.0000 N   0  0  0  0  0  0  0  0  0  0  0  0
   11.7699    8.3988    0.0000 N   0  0  0  0  0  0  0  0  0  0  0  0
   13.9884   11.6678    0.0000 N   0  0  0  0  0  0  0  0  0  0  0  0
   13.2733   13.9888    0.0000 N   0  0  0  0  0  0  0  0  0  0  0  0
    9.2167    9.5440    0.0000 C   0  0  2  0  0  0  0  0  0  0  0  0
    8.7780    8.2070    0.0000 C   0  0  1  0  0  0  0  0  0  0  0  0
    7.3707    8.2108    0.0000 C   0  0  1  0  0  0  0  0  0  0  0  0
    6.9396    9.5486    0.0000 C   0  0  1  0  0  0  0  0  0  0  0  0
    9.9194   10.7539    0.0000 C   0  0  0  0  0  0  0  0  0  0  0  0
    5.6111    9.9846    0.0000 C   0  0  0  0  0  0  0  0  0  0  0  0
   10.4933    8.9714    0.0000 C   0  0  0  0  0  0  0  0  0  0  0  0
    9.3139   12.0048    0.0000 C   0  0  0  0  0  0  0  0  0  0  0  0
   11.6054   12.2174    0.0000 C   0  0  0  0  0  0  0  0  0  0  0  0
   10.3922   12.9365    0.0000 C   0  0  0  0  0  0  0  0  0  0  0  0
   12.9574   12.6257    0.0000 C   0  0  0  0  0  0  0  0  0  0  0  0
    3.7357    7.1155    0.0000 C   0  0  2  0  0  0  0  0  0  0  0  0
   13.6737   10.2982    0.0000 C   0  0  0  0  0  0  0  0  0  0  0  0
    4.7307    2.3718    0.0000 C   0  0  0  0  0  0  0  0  0  0  0  0
    3.7971    3.4150    0.0000 C   0  0  0  0  0  0  0  0  0  0  0  0
    4.2947    1.0432    0.0000 C   0  0  0  0  0  0  0  0  0  0  0  0
    6.1010    2.6588    0.0000 C   0  0  0  0  0  0  0  0  0  0  0  0
    3.2995    5.7867    0.0000 C   0  0  0  0  0  0  0  0  0  0  0  0
    5.1058    7.4024    0.0000 C   0  0  0  0  0  0  0  0  0  0  0  0
    5.2284    0.0000    0.0000 C   0  0  0  0  0  0  0  0  0  0  0  0
    7.0336    1.6168    0.0000 C   0  0  0  0  0  0  0  0  0  0  0  0
    3.6749   10.8172    0.0000 O   0  0  0  0  0  0  0  0  0  0  0  0
  1  2  1  0  0  0  0
  2  3  2  0  0  0  0
  2  4  1  0  0  0  0
  3  5  1  0  0  0  0
  4  6  2  0  0  0  0
  5  7  2  0  0  0  0
  6  7  1  0  0  0  0
  8 12  1  0  0  0  0
  8  1  1  1  0  0  0
  8 17  1  6  0  0  0
  9 21  1  0  0  0  0
  9 24  1  0  0  0  0
 22 10  1  6  0  0  0
 23 11  1  6  0  0  0
 12 26  1  0  0  0  0
 13 35  1  0  0  0  0
 13 38  1  0  0  0  0
 14 38  2  0  0  0  0
 15 16  1  0  0  0  0
 15 25  1  0  0  0  0
 15 29  1  0  0  0  0
 16 33  2  0  0  0  0
 32 17  1  0  0  0  0
 18 27  3  0  0  0  0
 19 31  2  0  0  0  0
 19 33  1  0  0  0  0
 20 31  1  0  0  0  0
 21 22  1  0  0  0  0
 21 25  1  1  0  0  0
 21 27  1  6  0  0  0
 22 23  1  0  0  0  0
 23 24  1  0  0  0  0
 24 26  1  1  0  0  0
 25 28  2  0  0  0  0
 28 30  1  0  0  0  0
 29 30  2  0  0  0  0
 29 31  1  0  0  0  0
 32 38  1  0  0  0  0
 32 39  1  1  0  0  0
 34 35  1  0  0  0  0
 34 36  1  0  0  0  0
 34 37  1  0  0  0  0
 36 40  1  0  0  0  0
 37 41  1  0  0  0  0
  8 42  2  0  0  0  0
M  END
>  <Mol_ID> (202)
7886

>  <Formula> (202)
C27H35N6O8P

>  <MolWeight> (202)
602.575961

>  <Cat> (202)
S8932

>  <Name> (202)
Remdesivir (GS-5734)

>  <Synonyms> (202)
N/A

>  <Target> (202)
Anti-infection

>  <Form> (202)
Free Base

>  <CAS> (202)
1809249-37-3

>  <URL> (202)
http://www.selleckchem.com/products/remdesivir.html

$$$$

csChFnd80/01042310162D

 29 32  0  0  0  0  0  0  0  0999 V2000
    2.4248    7.0000    0.0000 S   0  0  0  0  0  0  0  0  0  0  0  0
    6.7294   12.6879    0.0000 O   0  0  0  0  0  0  0  0  0  0  0  0
    3.1761   13.3940    0.0000 O   0  0  0  0  0  0  0  0  0  0  0  0
    4.9706   15.8550    0.0000 O   0  0  0  0  0  0  0  0  0  0  0  0
    9.1438   14.3371    0.0000 O   0  0  0  0  0  0  0  0  0  0  0  0
    0.0000    0.0000    0.0000 O   0  5  0  0  0  0  0  0  0  0  0  0
    2.4248    0.0000    0.0000 O   0  0  0  0  0  0  0  0  0  0  0  0
    4.9621   10.9268    0.0000 N   0  0  0  0  0  0  0  0  0  0  0  0
    4.9621    8.6734    0.0000 N   0  0  0  0  0  0  0  0  0  0  0  0
    2.4248   11.2001    0.0000 N   0  0  0  0  0  0  0  0  0  0  0  0
    1.2124    9.1000    0.0000 N   0  0  0  0  0  0  0  0  0  0  0  0
    1.2124    0.7000    0.0000 N   0  3  0  0  0  0  0  0  0  0  0  0
    4.5761   13.3915    0.0000 C   0  0  1  0  0  0  0  0  0  0  0  0
    5.3971   12.2575    0.0000 C   0  0  1  0  0  0  0  0  0  0  0  0
    5.4010   14.5227    0.0000 C   0  0  1  0  0  0  0  0  0  0  0  0
    6.7317   14.0879    0.0000 C   0  0  1  0  0  0  0  0  0  0  0  0
    7.8658   14.9089    0.0000 C   0  0  0  0  0  0  0  0  0  0  0  0
    3.6374   10.5002    0.0000 C   0  0  0  0  0  0  0  0  0  0  0  0
    5.7792    9.8002    0.0000 C   0  0  0  0  0  0  0  0  0  0  0  0
    3.6374    9.1000    0.0000 C   0  0  0  0  0  0  0  0  0  0  0  0
    2.4248    8.4000    0.0000 C   0  0  0  0  0  0  0  0  0  0  0  0
    1.2124   10.5002    0.0000 C   0  0  0  0  0  0  0  0  0  0  0  0
    1.2124    6.3001    0.0000 C   0  0  0  0  0  0  0  0  0  0  0  0
    1.2124    4.8999    0.0000 C   0  0  0  0  0  0  0  0  0  0  0  0
    2.4248    4.1999    0.0000 C   0  0  0  0  0  0  0  0  0  0  0  0
    0.0000    4.1999    0.0000 C   0  0  0  0  0  0  0  0  0  0  0  0
    2.4248    2.8000    0.0000 C   0  0  0  0  0  0  0  0  0  0  0  0
    0.0000    2.8000    0.0000 C   0  0  0  0  0  0  0  0  0  0  0  0
    1.2124    2.1000    0.0000 C   0  0  0  0  0  0  0  0  0  0  0  0
  1 21  1  0  0  0  0
  1 23  1  0  0  0  0
  2 14  1  0  0  0  0
  2 16  1  0  0  0  0
 13  3  1  6  0  0  0
 15  4  1  6  0  0  0
  5 17  1  0  0  0  0
  6 12  1  0  0  0  0
  7 12  2  0  0  0  0
 14  8  1  1  0  0  0
  8 18  1  0  0  0  0
  8 19  1  0  0  0  0
  9 19  2  0  0  0  0
  9 20  1  0  0  0  0
 10 18  1  0  0  0  0
 10 22  2  0  0  0  0
 11 21  2  0  0  0  0
 11 22  1  0  0  0  0
 12 29  1  0  0  0  0
 13 14  1  0  0  0  0
 13 15  1  0  0  0  0
 15 16  1  0  0  0  0
 16 17  1  1  0  0  0
 18 20  2  0  0  0  0
 20 21  1  0  0  0  0
 23 24  1  0  0  0  0
 24 25  2  0  0  0  0
 24 26  1  0  0  0  0
 25 27  1  0  0  0  0
 26 28  2  0  0  0  0
 27 29  2  0  0  0  0
 28 29  1  0  0  0  0
M  END
>  <Mol_ID> (203)
7943

>  <Formula> (203)
C17H17N5O6S

>  <MolWeight> (203)
419.41178

>  <Cat> (203)
S0838

>  <Name> (203)
S-(4-Nitrobenzyl)-6-thioinosine (NBMPR)

>  <Synonyms> (203)
Nitrobenzylthioinosine, NBTI, NSC 296962

>  <Target> (203)
Adenosine Receptor

>  <Form> (203)
Free Base

>  <CAS> (203)
38048-32-7

>  <URL> (203)
http://www.selleckchem.com/products/nbmpr.html

$$$$

csChFnd80/01042310162D

 18 19  0  0  0  0  0  0  0  0999 V2000
    4.7700    2.4642    0.0000 O   0  0  0  0  0  0  0  0  0  0  0  0
    2.1144    0.0000    0.0000 O   0  0  0  0  0  0  0  0  0  0  0  0
    6.5526    0.1463    0.0000 O   0  0  0  0  0  0  0  0  0  0  0  0
    6.0623    4.6871    0.0000 O   0  0  0  0  0  0  0  0  0  0  0  0
    3.6374    8.8871    0.0000 O   0  0  0  0  0  0  0  0  0  0  0  0
    3.6374    4.6871    0.0000 N   0  0  0  0  0  0  0  0  0  0  0  0
    4.8498    6.7871    0.0000 N   0  0  0  0  0  0  0  0  0  0  0  0
    2.9374    1.1326    0.0000 C   0  0  1  0  0  0  0  0  0  0  0  0
    3.6374    3.2871    0.0000 C   0  0  1  0  0  0  0  0  0  0  0  0
    2.5048    2.4642    0.0000 C   0  0  0  0  0  0  0  0  0  0  0  0
    4.3374    1.1326    0.0000 C   0  0  1  0  0  0  0  0  0  0  0  0
    5.1603    0.0000    0.0000 C   0  0  0  0  0  0  0  0  0  0  0  0
    2.4250    5.3871    0.0000 C   0  0  0  0  0  0  0  0  0  0  0  0
    4.8498    5.3871    0.0000 C   0  0  0  0  0  0  0  0  0  0  0  0
    2.4250    6.7871    0.0000 C   0  0  0  0  0  0  0  0  0  0  0  0
    3.6374    7.4871    0.0000 C   0  0  0  0  0  0  0  0  0  0  0  0
    1.2125    7.4871    0.0000 C   0  0  0  0  0  0  0  0  0  0  0  0
    0.0000    8.1871    0.0000 C   0  0  0  0  0  0  0  0  0  0  0  0
  1  9  1  0  0  0  0
  1 11  1  0  0  0  0
  8  2  1  1  0  0  0
  3 12  1  0  0  0  0
  4 14  2  0  0  0  0
  5 16  2  0  0  0  0
  9  6  1  6  0  0  0
  6 13  1  0  0  0  0
  6 14  1  0  0  0  0
  7 14  1  0  0  0  0
  7 16  1  0  0  0  0
  8 10  1  0  0  0  0
  8 11  1  0  0  0  0
  9 10  1  0  0  0  0
 11 12  1  6  0  0  0
 13 15  2  0  0  0  0
 15 16  1  0  0  0  0
 15 17  1  0  0  0  0
 17 18  3  0  0  0  0
M  END
>  <Mol_ID> (204)
7950

>  <Formula> (204)
C11H12N2O5

>  <MolWeight> (204)
252.22338

>  <Cat> (204)
S1661

>  <Name> (204)
5-Ethynyl-2'-deoxyuridine

>  <Synonyms> (204)
EdU, 5-EdU, 2'-Deoxy-5-ethynyluridine

>  <Target> (204)
PROTAC Linker

>  <Form> (204)
Free Base

>  <CAS> (204)
61135-33-9

>  <URL> (204)
http://www.selleckchem.com/products/5-ethynyl-2--deoxyuridine.html

$$$$

csChFnd80/01042310162D

 23 25  0  0  0  0  0  0  0  0999 V2000
    7.9313    7.3370    0.0000 S   0  0  0  0  0  0  0  0  0  0  0  0
    5.5168    5.6878    0.0000 O   0  0  0  0  0  0  0  0  0  0  0  0
    3.7582    8.8549    0.0000 O   0  0  0  0  0  0  0  0  0  0  0  0
    1.9637    6.3939    0.0000 O   0  0  0  0  0  0  0  0  0  0  0  0
    3.7497    3.9267    0.0000 N   0  0  0  0  0  0  0  0  0  0  0  0
    3.7497    1.6733    0.0000 N   0  0  0  0  0  0  0  0  0  0  0  0
    1.2124    4.1999    0.0000 N   0  0  0  0  0  0  0  0  0  0  0  0
    0.0000    2.1000    0.0000 N   0  0  0  0  0  0  0  0  0  0  0  0
    1.2124    0.0000    0.0000 N   0  0  0  0  0  0  0  0  0  0  0  0
    4.1885    7.5226    0.0000 C   0  0  1  0  0  0  0  0  0  0  0  0
    3.3637    6.3914    0.0000 C   0  0  2  0  0  0  0  0  0  0  0  0
    5.5192    7.0878    0.0000 C   0  0  1  0  0  0  0  0  0  0  0  0
    4.1846    5.2574    0.0000 C   0  0  1  0  0  0  0  0  0  0  0  0
    6.6534    7.9088    0.0000 C   0  0  0  0  0  0  0  0  0  0  0  0
    2.4249    3.4999    0.0000 C   0  0  0  0  0  0  0  0  0  0  0  0
    4.5668    2.8001    0.0000 C   0  0  0  0  0  0  0  0  0  0  0  0
    9.0655    8.1580    0.0000 C   0  0  0  0  0  0  0  0  0  0  0  0
    2.4249    2.1000    0.0000 C   0  0  0  0  0  0  0  0  0  0  0  0
   10.3434    7.5863    0.0000 C   0  0  0  0  0  0  0  0  0  0  0  0
    1.2124    1.4000    0.0000 C   0  0  0  0  0  0  0  0  0  0  0  0
   11.4774    8.4073    0.0000 C   0  0  0  0  0  0  0  0  0  0  0  0
   10.4873    6.1937    0.0000 C   0  0  0  0  0  0  0  0  0  0  0  0
    0.0000    3.4999    0.0000 C   0  0  0  0  0  0  0  0  0  0  0  0
  1 14  1  0  0  0  0
  1 17  1  0  0  0  0
  2 12  1  0  0  0  0
  2 13  1  0  0  0  0
 10  3  1  6  0  0  0
 11  4  1  6  0  0  0
 13  5  1  1  0  0  0
  5 15  1  0  0  0  0
  5 16  1  0  0  0  0
  6 16  2  0  0  0  0
  6 18  1  0  0  0  0
  7 15  2  0  0  0  0
  7 23  1  0  0  0  0
  8 20  1  0  0  0  0
  8 23  2  0  0  0  0
  9 20  1  0  0  0  0
 10 11  1  0  0  0  0
 10 12  1  0  0  0  0
 11 13  1  0  0  0  0
 12 14  1  1  0  0  0
 15 18  1  0  0  0  0
 17 19  1  0  0  0  0
 18 20  2  0  0  0  0
 19 21  1  0  0  0  0
 19 22  1  0  0  0  0
M  END
>  <Mol_ID> (205)
7956

>  <Formula> (205)
C14H21N5O3S

>  <MolWeight> (205)
339.41324

>  <Cat> (205)
S2971

>  <Name> (205)
SIBA

>  <Synonyms> (205)
5¡ä-Isobutylthio-5¡ä-deoxyadenosine, 5'-Deoxy-5'-isobutylthioadenosine, 5'-Isobutylthioadenosine

>  <Target> (205)
Others

>  <Form> (205)
Free Base

>  <CAS> (205)
35899-54-8

>  <URL> (205)
http://www.selleckchem.com/products/siba.html

$$$$

csChFnd80/01042310162D

 35 38  0  0  0  0  0  0  0  0999 V2000
    2.9829    6.6996    0.0000 C   0  0  0  0  0  0  0  0  0  0  0  0
    3.9271    5.6713    0.0000 C   0  0  2  0  0  0  0  0  0  0  0  0
    3.6532    4.2755    0.0000 C   0  0  2  0  0  0  0  0  0  0  0  0
    4.8267    3.5964    0.0000 C   0  0  2  0  0  0  0  0  0  0  0  0
    5.8997    4.5473    0.0000 C   0  0  1  0  0  0  0  0  0  0  0  0
    5.3216    5.8188    0.0000 O   0  0  0  0  0  0  0  0  0  0  0  0
    7.2665    4.2572    0.0000 N   0  0  0  0  0  0  0  0  0  0  0  0
    7.8367    2.9765    0.0000 C   0  0  0  0  0  0  0  0  0  0  0  0
    9.2309    3.1233    0.0000 N   0  0  0  0  0  0  0  0  0  0  0  0
    9.5214    4.4981    0.0000 C   0  0  0  0  0  0  0  0  0  0  0  0
   10.7467    5.2055    0.0000 C   0  0  0  0  0  0  0  0  0  0  0  0
   11.9567    4.5069    0.0000 N   0  0  0  0  0  0  0  0  0  0  0  0
   10.7467    6.5990    0.0000 N   0  0  0  0  0  0  0  0  0  0  0  0
    9.5260    7.3038    0.0000 C   0  0  0  0  0  0  0  0  0  0  0  0
    8.3074    6.6003    0.0000 N   0  0  0  0  0  0  0  0  0  0  0  0
    8.3074    5.1955    0.0000 C   0  0  0  0  0  0  0  0  0  0  0  0
   13.1668    5.2056    0.0000 C   0  0  0  0  0  0  0  0  0  0  0  0
   14.3677    4.5123    0.0000 C   0  0  0  0  0  0  0  0  0  0  0  0
   15.5851    5.2151    0.0000 C   0  0  0  0  0  0  0  0  0  0  0  0
   15.5851    6.6240    0.0000 C   0  0  0  0  0  0  0  0  0  0  0  0
   14.3713    7.3247    0.0000 C   0  0  0  0  0  0  0  0  0  0  0  0
   13.1581    6.6243    0.0000 C   0  0  0  0  0  0  0  0  0  0  0  0
   16.8009    4.5132    0.0000 O   0  0  0  0  0  0  0  0  0  0  0  0
    3.8419    1.3835    0.0000 C   0  0  0  0  0  0  0  0  0  0  0  0
    3.9883    0.0000    0.0000 C   0  0  0  0  0  0  0  0  0  0  0  0
    2.5596    1.9534    0.0000 O   0  0  0  0  0  0  0  0  0  0  0  0
    4.9737    2.2070    0.0000 O   0  0  0  0  0  0  0  0  0  0  0  0
    1.2445    4.5098    0.0000 C   0  0  0  0  0  0  0  0  0  0  0  0
    1.3167    5.9051    0.0000 C   0  0  0  0  0  0  0  0  0  0  0  0
    0.0000    3.8746    0.0000 O   0  0  0  0  0  0  0  0  0  0  0  0
    2.3813    3.6973    0.0000 O   0  0  0  0  0  0  0  0  0  0  0  0
    2.4782    9.0664    0.0000 C   0  0  0  0  0  0  0  0  0  0  0  0
    2.9091   10.3956    0.0000 C   0  0  0  0  0  0  0  0  0  0  0  0
    1.1117    8.7750    0.0000 O   0  0  0  0  0  0  0  0  0  0  0  0
    3.4138    8.0287    0.0000 O   0  0  0  0  0  0  0  0  0  0  0  0
  2  1  1  1  0  0  0
  2  3  1  0  0  0  0
  3  4  1  0  0  0  0
  4  5  1  0  0  0  0
  5  6  1  0  0  0  0
  2  6  1  0  0  0  0
  5  7  1  1  0  0  0
  7  8  1  0  0  0  0
  8  9  2  0  0  0  0
  9 10  1  0  0  0  0
 10 11  2  0  0  0  0
 11 12  1  0  0  0  0
 11 13  1  0  0  0  0
 13 14  2  0  0  0  0
 14 15  1  0  0  0  0
 15 16  2  0  0  0  0
 10 16  1  0  0  0  0
  7 16  1  0  0  0  0
 17 18  1  0  0  0  0
 18 19  2  0  0  0  0
 19 20  1  0  0  0  0
 20 21  2  0  0  0  0
 21 22  1  0  0  0  0
 17 22  2  0  0  0  0
 19 23  1  0  0  0  0
 12 17  1  0  0  0  0
 24 25  1  0  0  0  0
 24 26  2  0  0  0  0
 24 27  1  0  0  0  0
  4 27  1  6  0  0  0
 28 29  1  0  0  0  0
 28 30  2  0  0  0  0
 28 31  1  0  0  0  0
  3 31  1  6  0  0  0
 32 33  1  0  0  0  0
 32 34  2  0  0  0  0
 32 35  1  0  0  0  0
  1 35  1  0  0  0  0
M  END
>  <Mol_ID> (206)
7967

>  <Formula> (206)
C22H23N5O8

>  <MolWeight> (206)
485.44672

>  <Cat> (206)
S4460

>  <Name> (206)
IMM-H007

>  <Synonyms> (206)
N/A

>  <Target> (206)
AMPK

>  <Form> (206)
Free Base

>  <CAS> (206)
1221412-23-2

>  <URL> (206)
http://www.selleckchem.com/products/imm-h007.html

$$$$

csChFnd80/01042310162D

 22 24  0  0  0  0  0  0  0  0999 V2000
    5.5168    5.6878    0.0000 O   0  0  0  0  0  0  0  0  0  0  0  0
    1.9637    6.3939    0.0000 O   0  0  0  0  0  0  0  0  0  0  0  0
    3.7582    8.8549    0.0000 O   0  0  0  0  0  0  0  0  0  0  0  0
    6.5095    9.3013    0.0000 O   0  0  0  0  0  0  0  0  0  0  0  0
    3.7497    3.9267    0.0000 N   0  0  0  0  0  0  0  0  0  0  0  0
    7.9313    7.3370    0.0000 N   0  0  0  0  0  0  0  0  0  0  0  0
    3.7497    1.6733    0.0000 N   0  0  0  0  0  0  0  0  0  0  0  0
    1.2124    4.2000    0.0000 N   0  0  0  0  0  0  0  0  0  0  0  0
    0.0000    2.1000    0.0000 N   0  0  0  0  0  0  0  0  0  0  0  0
    1.2124    0.0000    0.0000 N   0  0  0  0  0  0  0  0  0  0  0  0
    3.3637    6.3914    0.0000 C   0  0  1  0  0  0  0  0  0  0  0  0
    4.1846    5.2574    0.0000 C   0  0  1  0  0  0  0  0  0  0  0  0
    4.1885    7.5227    0.0000 C   0  0  1  0  0  0  0  0  0  0  0  0
    5.5192    7.0878    0.0000 C   0  0  1  0  0  0  0  0  0  0  0  0
    6.6534    7.9088    0.0000 C   0  0  0  0  0  0  0  0  0  0  0  0
    2.4249    3.4999    0.0000 C   0  0  0  0  0  0  0  0  0  0  0  0
    4.5668    2.8001    0.0000 C   0  0  0  0  0  0  0  0  0  0  0  0
    2.4249    2.1000    0.0000 C   0  0  0  0  0  0  0  0  0  0  0  0
    9.0655    8.1580    0.0000 C   0  0  0  0  0  0  0  0  0  0  0  0
    1.2124    1.4000    0.0000 C   0  0  0  0  0  0  0  0  0  0  0  0
    0.0000    3.4999    0.0000 C   0  0  0  0  0  0  0  0  0  0  0  0
   10.3434    7.5864    0.0000 C   0  0  0  0  0  0  0  0  0  0  0  0
  1 12  1  0  0  0  0
  1 14  1  0  0  0  0
 11  2  1  6  0  0  0
 13  3  1  6  0  0  0
  4 15  2  0  0  0  0
 12  5  1  1  0  0  0
  5 16  1  0  0  0  0
  5 17  1  0  0  0  0
  6 15  1  0  0  0  0
  6 19  1  0  0  0  0
  7 17  2  0  0  0  0
  7 18  1  0  0  0  0
  8 16  2  0  0  0  0
  8 21  1  0  0  0  0
  9 20  1  0  0  0  0
  9 21  2  0  0  0  0
 10 20  1  0  0  0  0
 11 12  1  0  0  0  0
 11 13  1  0  0  0  0
 13 14  1  0  0  0  0
 14 15  1  1  0  0  0
 16 18  1  0  0  0  0
 18 20  2  0  0  0  0
 19 22  1  0  0  0  0
M  END
>  <Mol_ID> (207)
7988

>  <Formula> (207)
C12H16N6O4

>  <MolWeight> (207)
308.29324

>  <Cat> (207)
S6347

>  <Name> (207)
5'-N-Ethylcarboxamidoadenosine (NECA)

>  <Synonyms> (207)
5'-(N-Ethylcarboxamido)adenosine, Adenosine-5'N-ethylcarboxamide, 5'-Ethylcarboxamidoadenosine

>  <Target> (207)
Adenosine Receptor

>  <Form> (207)
Free Base

>  <CAS> (207)
35920-39-9

>  <URL> (207)
http://www.selleckchem.com/products/5-n-ethylcarboxamidoadenosine.html

$$$$

csChFnd80/01042310162D

 29 30  0  0  0  0  0  0  0  0999 V2000
    9.5568    3.9346    0.0000 C   0  0  0  0  0  0  0  0  0  0  0  0
    9.4105    5.3269    0.0000 F   0  0  0  0  0  0  0  0  0  0  0  0
    7.2852    0.5069    0.0000 O   0  0  0  0  0  0  0  0  0  0  0  0
    7.6321    6.9137    0.0000 O   0  0  0  0  0  0  0  0  0  0  0  0
    6.5918    7.8506    0.0000 C   0  0  0  0  0  0  0  0  0  0  0  0
    6.8828    9.2199    0.0000 C   0  0  0  0  0  0  0  0  0  0  0  0
    5.2603    7.4179    0.0000 O   0  0  0  0  0  0  0  0  0  0  0  0
    8.2143    9.6525    0.0000 C   0  0  0  0  0  0  0  0  0  0  0  0
    5.8424   10.1567    0.0000 C   0  0  0  0  0  0  0  0  0  0  0  0
    4.8497    5.6749    0.0000 C   0  0  0  0  0  0  0  0  0  0  0  0
    3.6372    4.9750    0.0000 O   0  0  0  0  0  0  0  0  0  0  0  0
    2.4249    5.6749    0.0000 C   0  0  0  0  0  0  0  0  0  0  0  0
    1.2124    4.9750    0.0000 C   0  0  0  0  0  0  0  0  0  0  0  0
    2.4249    7.0749    0.0000 O   0  0  0  0  0  0  0  0  0  0  0  0
    0.0000    5.6749    0.0000 C   0  0  0  0  0  0  0  0  0  0  0  0
    1.2124    3.5750    0.0000 C   0  0  0  0  0  0  0  0  0  0  0  0
   12.1083    0.0000    0.0000 N   0  0  0  0  0  0  0  0  0  0  0  0
    7.5778    3.2916    0.0000 C   0  0  1  0  0  0  0  0  0  0  0  0
    8.2778    4.5040    0.0000 C   0  0  2  0  0  0  0  0  0  0  0  0
    6.2085    3.5826    0.0000 O   0  0  0  0  0  0  0  0  0  0  0  0
    7.3411    5.5444    0.0000 C   0  0  1  0  0  0  0  0  0  0  0  0
    6.0621    4.9750    0.0000 C   0  0  1  0  0  0  0  0  0  0  0  0
    8.7105    2.4687    0.0000 N   0  0  0  0  0  0  0  0  0  0  0  0
    8.5641    1.0764    0.0000 C   0  0  0  0  0  0  0  0  0  0  0  0
    9.9894    3.0381    0.0000 C   0  0  0  0  0  0  0  0  0  0  0  0
    9.6967    0.2535    0.0000 N   0  0  0  0  0  0  0  0  0  0  0  0
   11.1220    2.2153    0.0000 C   0  0  0  0  0  0  0  0  0  0  0  0
   10.9757    0.8229    0.0000 C   0  0  0  0  0  0  0  0  0  0  0  0
    7.4315    1.8993    0.0000 H   0  0  0  0  0  0  0  0  0  0  0  0
 19  1  1  6  0  0  0
 19  2  1  1  0  0  0
  3 24  2  0  0  0  0
  4  5  1  0  0  0  0
 21  4  1  1  0  0  0
  5  6  1  0  0  0  0
  5  7  2  0  0  0  0
  6  8  1  0  0  0  0
  6  9  1  0  0  0  0
 10 11  1  0  0  0  0
 22 10  1  6  0  0  0
 11 12  1  0  0  0  0
 12 13  1  0  0  0  0
 12 14  2  0  0  0  0
 13 15  1  0  0  0  0
 13 16  1  0  0  0  0
 17 28  1  0  0  0  0
 18 19  1  0  0  0  0
 18 20  1  0  0  0  0
 18 23  1  6  0  0  0
 18 29  1  1  0  0  0
 19 21  1  0  0  0  0
 20 22  1  0  0  0  0
 21 22  1  0  0  0  0
 23 24  1  0  0  0  0
 23 25  1  0  0  0  0
 24 26  1  0  0  0  0
 25 27  2  0  0  0  0
 26 28  2  0  0  0  0
 27 28  1  0  0  0  0
M  END
>  <Mol_ID> (208)
8252

>  <Formula> (208)
C18H26FN3O6

>  <MolWeight> (208)
399.4139432

>  <Cat> (208)
E0097

>  <Name> (208)
Mericitabine

>  <Synonyms> (208)
RG 7128, R-7128, PSI 6130 diisobutyrate

>  <Target> (208)
DNA/RNA Synthesis

>  <Form> (208)
free base

>  <CAS> (208)
940908-79-2

>  <URL> (208)
http://www.selleckchem.com/products/mericitabine.html

$$$$

csChFnd80/01042310162D

 24 26  0  0  0  0  0  0  0  0999 V2000
   10.1659    1.5106    0.0000 O   0  0  0  0  0  0  0  0  0  0  0  0
    8.8870    0.9413    0.0000 C   0  0  0  0  0  0  0  0  0  0  0  0
    7.7543    1.7642    0.0000 C   0  0  2  0  0  0  0  0  0  0  0  0
    6.4229    1.3314    0.0000 C   0  0  1  0  0  0  0  0  0  0  0  0
    5.9903    0.0000    0.0000 O   0  0  0  0  0  0  0  0  0  0  0  0
    5.6000    2.4642    0.0000 C   0  0  1  0  0  0  0  0  0  0  0  0
    4.2000    2.4642    0.0000 O   0  0  0  0  0  0  0  0  0  0  0  0
    6.4229    3.5967    0.0000 C   0  0  1  0  0  0  0  0  0  0  0  0
    7.7543    3.1642    0.0000 O   0  0  0  0  0  0  0  0  0  0  0  0
    5.9903    4.9282    0.0000 N   0  0  0  0  0  0  0  0  0  0  0  0
    6.8132    6.0609    0.0000 C   0  0  0  0  0  0  0  0  0  0  0  0
    5.9903    7.1935    0.0000 N   0  0  0  0  0  0  0  0  0  0  0  0
    4.6587    6.7609    0.0000 C   0  0  0  0  0  0  0  0  0  0  0  0
    3.4464    7.4609    0.0000 C   0  0  0  0  0  0  0  0  0  0  0  0
    3.4464    8.8609    0.0000 O   0  0  0  0  0  0  0  0  0  0  0  0
    2.2339    6.7609    0.0000 N   0  0  0  0  0  0  0  0  0  0  0  0
    2.2339    5.3609    0.0000 C   0  0  0  0  0  0  0  0  0  0  0  0
    1.0214    4.6609    0.0000 N   0  0  0  0  0  0  0  0  0  0  0  0
    3.4464    4.6609    0.0000 N   0  0  0  0  0  0  0  0  0  0  0  0
    4.6587    5.3609    0.0000 C   0  0  0  0  0  0  0  0  0  0  0  0
    3.5000    1.2517    0.0000 C   0  0  0  0  0  0  0  0  0  0  0  0
    2.1000    1.2517    0.0000 C   0  0  0  0  0  0  0  0  0  0  0  0
    1.4000    0.0392    0.0000 O   0  0  0  0  0  0  0  0  0  0  0  0
    0.0000    0.0392    0.0000 C   0  0  0  0  0  0  0  0  0  0  0  0
  1  2  1  0  0  0  0
  3  2  1  6  0  0  0
  3  4  1  0  0  0  0
  4  5  1  1  0  0  0
  4  6  1  0  0  0  0
  6  7  1  1  0  0  0
  6  8  1  0  0  0  0
  8  9  1  0  0  0  0
  3  9  1  0  0  0  0
  8 10  1  6  0  0  0
 10 11  1  0  0  0  0
 11 12  2  0  0  0  0
 12 13  1  0  0  0  0
 13 14  1  0  0  0  0
 14 15  2  0  0  0  0
 14 16  1  0  0  0  0
 16 17  1  0  0  0  0
 17 18  1  0  0  0  0
 17 19  2  0  0  0  0
 19 20  1  0  0  0  0
 13 20  2  0  0  0  0
 10 20  1  0  0  0  0
 21 22  1  0  0  0  0
 23 24  1  0  0  0  0
 22 23  1  0  0  0  0
  7 21  1  0  0  0  0
M  END
>  <Mol_ID> (209)
8606

>  <Formula> (209)
C13H19N5O6

>  <MolWeight> (209)
341.31986

>  <Cat> (209)
E2377

>  <Name> (209)
2¡ä-O-(2-Methoxyethyl)guanosine

>  <Synonyms> (209)
2'-O-MOE-rG

>  <Form> (209)
free base

>  <CAS> (209)
473278-54-5

>  <URL> (209)
http://www.selleckchem.com/products/2--o--2-Methoxyethyl-guanosine.html

$$$$

csChFnd80/01042310162D

 46 47  0  0  0  0  0  0  0  0999 V2000
    9.8049    1.4000    0.0000 S   0  0  0  0  0  0  0  0  0  0  0  0
    9.8049    2.8000    0.0000 O   0  0  0  0  0  0  0  0  0  0  0  0
    9.8049    0.0000    0.0000 O   0  0  0  0  0  0  0  0  0  0  0  0
   11.6809    1.4000    0.0000 O   0  0  0  0  0  0  0  0  0  0  0  0
    7.5627    1.4000    0.0000 O   0  0  0  0  0  0  0  0  0  0  0  0
    6.3122    6.6282    0.0000 C   0  0  0  0  0  0  0  0  0  0  0  0
    7.6810    6.9187    0.0000 C   0  0  2  0  0  0  0  0  0  0  0  0
    7.8266    5.5272    0.0000 F   0  0  0  0  0  0  0  0  0  0  0  0
    7.2778    8.2313    0.0000 C   0  0  2  0  0  0  0  0  0  0  0  0
    9.0912    6.9187    0.0000 C   0  0  2  0  0  0  0  0  0  0  0  0
    6.0655    8.9278    0.0000 N   0  0  0  0  0  0  0  0  0  0  0  0
    8.4346    9.0888    0.0000 O   0  0  0  0  0  0  0  0  0  0  0  0
    9.8923    5.7736    0.0000 O   0  0  0  0  0  0  0  0  0  0  0  0
    9.5465    8.2313    0.0000 C   0  0  2  0  0  0  0  0  0  0  0  0
    3.6371    8.9278    0.0000 C   0  0  0  0  0  0  0  0  0  0  0  0
    6.0655   10.3278    0.0000 C   0  0  0  0  0  0  0  0  0  0  0  0
   10.7603    8.9278    0.0000 C   0  0  0  0  0  0  0  0  0  0  0  0
    3.6371   10.3278    0.0000 C   0  0  0  0  0  0  0  0  0  0  0  0
    2.4282    8.2313    0.0000 N   0  0  0  0  0  0  0  0  0  0  0  0
    4.8530   11.0313    0.0000 N   0  0  0  0  0  0  0  0  0  0  0  0
   11.9713    8.2313    0.0000 O   0  0  0  0  0  0  0  0  0  0  0  0
    2.4282   11.0313    0.0000 C   0  0  0  0  0  0  0  0  0  0  0  0
    1.2123    8.9278    0.0000 C   0  0  0  0  0  0  0  0  0  0  0  0
   13.1824    8.9278    0.0000 P   0  0  2  0  0  0  0  0  0  0  0  0
    2.4282   12.4313    0.0000 N   0  0  0  0  0  0  0  0  0  0  0  0
    1.2123   10.3278    0.0000 N   0  0  0  0  0  0  0  0  0  0  0  0
    0.0000    8.2313    0.0000 N   0  0  0  0  0  0  0  0  0  0  0  0
   14.4073    8.2522    0.0000 O   0  0  0  0  0  0  0  0  0  0  0  0
   13.1824   10.6358    0.0000 N   0  0  0  0  0  0  0  0  0  0  0  0
   14.3969    9.6313    0.0000 O   0  0  0  0  0  0  0  0  0  0  0  0
    0.9797   13.2642    0.0000 C   0  0  0  0  0  0  0  0  0  0  0  0
   14.4073    6.8522    0.0000 C   0  0  0  0  0  0  0  0  0  0  0  0
   14.3969   11.3393    0.0000 C   0  0  2  0  0  0  0  0  0  0  0  0
   15.6184    6.1522    0.0000 C   0  0  0  0  0  0  0  0  0  0  0  0
   13.1929    6.1488    0.0000 C   0  0  0  0  0  0  0  0  0  0  0  0
   15.6079   10.6358    0.0000 C   0  0  0  0  0  0  0  0  0  0  0  0
   14.3969   12.7393    0.0000 C   0  0  0  0  0  0  0  0  0  0  0  0
   15.6184    4.7488    0.0000 C   0  0  0  0  0  0  0  0  0  0  0  0
   13.1929    4.7522    0.0000 C   0  0  0  0  0  0  0  0  0  0  0  0
   16.8224   11.3393    0.0000 O   0  0  0  0  0  0  0  0  0  0  0  0
   15.6079    9.2358    0.0000 O   0  0  0  0  0  0  0  0  0  0  0  0
   14.4073    4.0505    0.0000 C   0  0  0  0  0  0  0  0  0  0  0  0
   18.0333   10.6358    0.0000 C   0  0  0  0  0  0  0  0  0  0  0  0
   19.2443   11.3393    0.0000 C   0  0  0  0  0  0  0  0  0  0  0  0
   18.0333    9.2358    0.0000 C   0  0  0  0  0  0  0  0  0  0  0  0
    4.3218    1.0619    0.0000 R   0  0  0  0  0  0  0  0  0  0  0  0
  1  2  2  0  0  0  0
  1  3  2  0  0  0  0
  1  4  1  0  0  0  0
  1  5  1  0  0  0  0
  7  6  1  6  0  0  0
  7  8  1  1  0  0  0
  7  9  1  0  0  0  0
  7 10  1  0  0  0  0
  9 11  1  6  0  0  0
  9 12  1  0  0  0  0
 10 13  1  1  0  0  0
 10 14  1  0  0  0  0
 11 15  1  0  0  0  0
 11 16  1  0  0  0  0
 12 14  1  0  0  0  0
 14 17  1  6  0  0  0
 15 18  1  0  0  0  0
 15 19  2  0  0  0  0
 16 20  2  0  0  0  0
 17 21  1  0  0  0  0
 18 20  1  0  0  0  0
 18 22  2  0  0  0  0
 19 23  1  0  0  0  0
 21 24  1  0  0  0  0
 22 25  1  0  0  0  0
 22 26  1  0  0  0  0
 23 26  2  0  0  0  0
 23 27  1  0  0  0  0
 24 28  1  0  0  0  0
 24 29  1  1  0  0  0
 24 30  2  0  0  0  0
 25 31  1  0  0  0  0
 28 32  1  0  0  0  0
 29 33  1  0  0  0  0
 32 34  2  0  0  0  0
 32 35  1  0  0  0  0
 33 36  1  0  0  0  0
 33 37  1  1  0  0  0
 34 38  1  0  0  0  0
 35 39  2  0  0  0  0
 36 40  1  0  0  0  0
 36 41  2  0  0  0  0
 38 42  2  0  0  0  0
 39 42  1  0  0  0  0
 40 43  1  0  0  0  0
 43 44  1  0  0  0  0
 43 45  1  0  0  0  0
A   46
1/2
M  END
>  <Mol_ID> (210)
9051

>  <Formula> (210)
C24H35FN7O11PRS

>  <MolWeight> (210)
679.6121642

>  <Cat> (210)
E1013

>  <Name> (210)
Bemnifosbuvir Hemisulfate (AT-527)

>  <Synonyms> (210)
RG-6422, RO 7496998

>  <Target> (210)
SARS-CoV

>  <Form> (210)
Hemisulfate

>  <CAS> (210)
2241337-84-6

>  <URL> (210)
http://www.selleckchem.com/products/bemnifosbuvir-hemisulfate-at-527.html

$$$$
